 Abaqus/Standard 2025                  DATE 24-Feb-2026 TIME 12:40:44
 SUMMARY OF JOB INFORMATION:
 STEP  INC ATT SEVERE EQUIL TOTAL  TOTAL      STEP       INC OF       DOF    IF
               DISCON ITERS ITERS  TIME/    TIME/LPF    TIME/LPF    MONITOR RIKS
               ITERS               FREQ
   1     1   1U    0     2     2  0.00       0.00       1.000     
   1     1   2U    0     2     2  0.00       0.00       0.2500    
   1     1   3     0    10    10  0.0625     0.0625     0.06250   
   1     2   1     0     9     9  0.125      0.125      0.06250   
   1     3   1U    0     4     4  0.125      0.125      0.06250   
   1     3   2     0     7     7  0.141      0.141      0.01562   
   1     4   1     0     8     8  0.156      0.156      0.01562   
   1     5   1U    0     7     7  0.156      0.156      0.01562   
   1     5   2     0     4     4  0.160      0.160      0.003906  
   1     6   1     0     6     6  0.164      0.164      0.003906  
   1     7   1U    0     4     4  0.164      0.164      0.003906  
   1     7   2     0     2     2  0.165      0.165      0.0009766 
   1     8   1     0     2     2  0.166      0.166      0.0009766 
   1     9   1U    0     5     5  0.166      0.166      0.001465  
   1     9   2     0     2     2  0.166      0.166      0.0003662 
   1    10   1     0     2     2  0.167      0.167      0.0005493 
   1    11   1U    0     5     5  0.167      0.167      0.0008240 
   1    11   2     0     2     2  0.167      0.167      0.0002060 
   1    12   1     0     2     2  0.167      0.167      0.0003090 
   1    13   1U    0     5     5  0.167      0.167      0.0004635 
   1    13   2     0     3     3  0.168      0.168      0.0001159 
   1    14   1     0     2     2  0.168      0.168      0.0001738 
   1    15   1     0     4     4  0.168      0.168      0.0002607 
   1    16   1U    0     6     6  0.168      0.168      0.0003911 
   1    16   2U    0     5     5  0.168      0.168      9.777e-05 
   1    16   3     0     2     2  0.168      0.168      2.444e-05 
   1    17   1     0     2     2  0.168      0.168      3.666e-05 
   1    18   1U    0     5     5  0.168      0.168      5.499e-05 
   1    18   2     0     2     2  0.168      0.168      1.375e-05 
   1    19   1U    0     7     7  0.168      0.168      2.062e-05 
   1    19   2U    0     7     7  0.168      0.168      1.000e-05 
                          
 THE ANALYSIS HAS NOT BEEN COMPLETED
