 Abaqus/Standard 2025                  DATE 24-Feb-2026 TIME 13:05:42
 SUMMARY OF JOB INFORMATION:
 STEP  INC ATT SEVERE EQUIL TOTAL  TOTAL      STEP       INC OF       DOF    IF
               DISCON ITERS ITERS  TIME/    TIME/LPF    TIME/LPF    MONITOR RIKS
               ITERS               FREQ
   1     1   1U    0     2     2  0.00       0.00       1.000     
   1     1   2U    0     2     2  0.00       0.00       0.2500    
   1     1   3     0    10    10  0.0625     0.0625     0.06250   
   1     2   1     0    10    10  0.125      0.125      0.06250   
   1     3   1U    0     3     3  0.125      0.125      0.06250   
   1     3   2     0     8     8  0.141      0.141      0.01562   
   1     4   1     0    10    10  0.156      0.156      0.01562   
   1     5   1U    0     3     3  0.156      0.156      0.01562   
   1     5   2     0     5     5  0.160      0.160      0.003906  
   1     6   1U    0     9     9  0.160      0.160      0.003906  
   1     6   2U    0     6     6  0.160      0.160      0.001953  
   1     6   3     0     2     2  0.161      0.161      0.0004883 
   1     7   1     0     3     3  0.161      0.161      0.0004883 
   1     8   1     0     4     4  0.162      0.162      0.0007324 
   1     9   1U    0     4     4  0.162      0.162      0.001099  
   1     9   2U    0     5     5  0.162      0.162      0.0002747 
   1     9   3     0     4     4  0.162      0.162      6.866e-05 
   1    10   1     0     2     2  0.162      0.162      0.0001030 
   1    11   1U    0     5     5  0.162      0.162      0.0001545 
   1    11   2     0     4     4  0.162      0.162      3.862e-05 
   1    12   1     0     2     2  0.162      0.162      5.794e-05 
   1    13   1U    0     5     5  0.162      0.162      8.690e-05 
   1    13   2     0     2     2  0.162      0.162      2.173e-05 
   1    14   1U    0     5     5  0.162      0.162      3.259e-05 
   1    14   2U    0     5     5  0.162      0.162      1.000e-05 
                          
 THE ANALYSIS HAS NOT BEEN COMPLETED
