1

   Abaqus 2025                                  Date 24-Feb-2026   Time 13:06:16
   For use by UNIVERSITAET STUTTGART under license from Dassault Systemes or its subsidiary.

                                                                                 
                                                                                 
 STEP    1     INCREMENT     1     STEP TIME    0.00    


                        S T E P       1     S T A T I C   A N A L Y S I S


                                                                                          

     AUTOMATIC TIME CONTROL WITH -
          A SUGGESTED INITIAL TIME INCREMENT OF                 1.00    
          AND A TOTAL TIME PERIOD OF                            1.00    
          THE MINIMUM TIME INCREMENT ALLOWED IS                1.000E-05
          THE MAXIMUM TIME INCREMENT ALLOWED IS                 1.00    

     LINEAR EQUATION SOLVER TYPE         DIRECT SPARSE

 CONVERGENCE TOLERANCE PARAMETERS FOR FORCE    
     CRITERION FOR RESIDUAL FORCE     FOR A NONLINEAR PROBLEM          5.000E-03
     CRITERION FOR DISP.    CORRECTION IN A NONLINEAR PROBLEM          1.000E-02
     INITIAL VALUE OF TIME AVERAGE FORCE                               1.000E-02
     AVERAGE FORCE     IS TIME AVERAGE FORCE    
     ALTERNATE CRIT. FOR RESIDUAL FORCE     FOR A NONLINEAR PROBLEM    2.000E-02
     CRITERION FOR ZERO FORCE     RELATIVE TO TIME AVRG. FORCE         1.000E-05
     CRITERION FOR RESIDUAL FORCE     WHEN THERE IS ZERO FLUX          1.000E-05
     CRITERION FOR DISP.    CORRECTION WHEN THERE IS ZERO FLUX         1.000E-03
     CRITERION FOR RESIDUAL FORCE     FOR A LINEAR INCREMENT           1.000E-08
     FIELD CONVERSION RATIO                                             1.00    
     CRITERION FOR ZERO FORCE     REL. TO TIME AVRG. MAX. FORCE        1.000E-05
     CRITERION FOR ZERO DISP.    RELATIVE TO CHARACTERISTIC LENGTH     1.000E-08

     VOLUMETRIC STRAIN COMPATIBILITY TOLERANCE FOR HYBRID SOLIDS       1.000E-05
     AXIAL STRAIN COMPATIBILITY TOLERANCE FOR HYBRID BEAMS             1.000E-05
     TRANS. SHEAR STRAIN COMPATIBILITY TOLERANCE FOR HYBRID BEAMS      1.000E-05
     SOFT CONTACT CONSTRAINT COMPATIBILITY TOLERANCE FOR P>P0          5.000E-03
     SOFT CONTACT CONSTRAINT COMPATIBILITY TOLERANCE FOR P=0.0         0.100    
     CONTACT FORCE ERROR TOLERANCE FOR CONVERT SDI=YES                 1.00    
     DISPLACEMENT COMPATIBILITY TOLERANCE FOR DCOUP ELEMENTS           1.000E-05
     ROTATION COMPATIBILITY TOLERANCE FOR DCOUP ELEMENTS               1.000E-05

 EQUILIBRIUM WILL BE CHECKED FOR SEVERE DISCONTINUITY ITERATIONS

 TIME INCREMENTATION CONTROL PARAMETERS:
     FIRST EQUILIBRIUM ITERATION FOR CONSECUTIVE DIVERGENCE CHECK              4
     EQUILIBRIUM ITERATION AT WHICH LOG. CONVERGENCE RATE CHECK BEGINS         8
     EQUILIBRIUM ITERATION AFTER WHICH ALTERNATE RESIDUAL IS USED              9
     MAXIMUM EQUILIBRIUM ITERATIONS ALLOWED                                   16
     EQUILIBRIUM ITERATION COUNT FOR CUT-BACK IN NEXT INCREMENT               10
     MAXIMUM EQUILIB. ITERS IN TWO INCREMENTS FOR TIME INCREMENT INCREASE      4
     MAXIMUM ITERATIONS FOR SEVERE DISCONTINUITIES                            50
     MAXIMUM ATTEMPTS ALLOWED IN AN INCREMENT                                  5
     MAXIMUM DISCON. ITERS IN TWO INCREMENTS FOR TIME INCREMENT INCREASE      50
     MAXIMUM CONTACT AUGMENTATIONS FOR *SURFACE BEHAVIOR,AUGMENTED LAGRANGE   50
     CUT-BACK FACTOR AFTER DIVERGENCE                                 0.2500    
     CUT-BACK FACTOR FOR TOO SLOW CONVERGENCE                         0.5000    
     CUT-BACK FACTOR AFTER TOO MANY EQUILIBRIUM ITERATIONS            0.7500    
     CUT-BACK FACTOR AFTER TOO MANY SEVERE DISCONTINUITY ITERATIONS   0.2500    
     CUT-BACK FACTOR AFTER PROBLEMS IN ELEMENT ASSEMBLY               0.2500    
     INCREASE FACTOR AFTER TWO INCREMENTS THAT CONVERGE QUICKLY        1.500    
     MAX. TIME INCREMENT INCREASE FACTOR ALLOWED                       1.500    
     MAX. TIME INCREMENT INCREASE FACTOR ALLOWED (DYNAMICS)            1.250    
     MAX. TIME INCREMENT INCREASE FACTOR ALLOWED (DIFFUSION)           2.000    
     MINIMUM TIME INCREMENT RATIO FOR EXTRAPOLATION TO OCCUR          0.1000    
     MAX. RATIO OF TIME INCREMENT TO STABILITY LIMIT                   1.000    
     FRACTION OF STABILITY LIMIT FOR NEW TIME INCREMENT               0.9500    
     TIME INCREMENT INCREASE FACTOR BEFORE A TIME POINT                1.000    
     GLOBAL STABILIZATION CONTROL IS NOT USED

          PRINT OF INCREMENT NUMBER, TIME, ETC., EVERY    1  INCREMENTS

     THE MAXIMUM NUMBER OF INCREMENTS IN THIS STEP IS                     100

          LARGE DISPLACEMENT THEORY WILL BE USED

     LINEAR EXTRAPOLATION WILL BE USED

     CHARACTERISTIC ELEMENT LENGTH     4.346E-04

     DETAILS REGARDING ACTUAL SOLUTION WAVEFRONT REQUESTED

     DETAILED OUTPUT OF DIAGNOSTICS TO DATABASE REQUESTED

     PRINT OF INCREMENT NUMBER, TIME, ETC., TO THE MESSAGE FILE EVERY     1  INCREMENTS

     COLLECTING MODEL CONSTRAINT INFORMATION FOR OVERCONSTRAINT CHECKS

     COLLECTING STEP CONSTRAINT INFORMATION FOR OVERCONSTRAINT CHECKS


  INCREMENT     1 STARTS. ATTEMPT NUMBER  1, TIME INCREMENT   1.00    
 
	SYMMETRIC PURE THREAD-BASED DIRECT SPARSE SOLVER RUNNING ON
 	1 HOST x 1 MPI RANK PER HOST x 1 THREAD PER RANK
        NUMBER OF EQUATIONS:  494706
        NUMBER OF RHS:        1
        NUMBER OF FLOPS:      1.131e+11
        SOLVER ELAPSED TIME:  4.8s

               CONVERGENCE CHECKS FOR EQUILIBRIUM ITERATION     1


 AVERAGE FORCE                       87.4       TIME AVG. FORCE        87.4    
 LARGEST SCALED RESIDUAL FORCE     -1.417E+03   AT NODE      56372   DOF  3
   INSTANCE: FINAL_PART-1                                                                    
  CORRESPONDING RESIDUAL FORCE     -1.417E+03
 LARGEST INCREMENT OF DISP.        -4.499E-02   AT NODE      10604   DOF  3
   INSTANCE: FINAL_PART-1                                                                    
 LARGEST CORRECTION TO DISP.       -4.499E-02   AT NODE      10604   DOF  3
   INSTANCE: FINAL_PART-1                                                                    
          FORCE     EQUILIBRIUM NOT ACHIEVED WITHIN TOLERANCE.
 
	SYMMETRIC PURE THREAD-BASED DIRECT SPARSE SOLVER RUNNING ON
 	1 HOST x 1 MPI RANK PER HOST x 1 THREAD PER RANK
        NUMBER OF EQUATIONS:  494706
        NUMBER OF RHS:        1
        NUMBER OF FLOPS:      1.131e+11
        SOLVER ELAPSED TIME:  6.6s
 

 ***WARNING: THE SYSTEM MATRIX HAS 12065 NEGATIVE EIGENVALUES.

     NEGATIVE EIGENVALUES MEAN THAT THE SYSTEM MATRIX IS NOT 
     POSITIVE DEFINITE:
     FOR EXAMPLE, A BIFURCATION (BUCKLING) LOAD MAY HAVE BEEN EXCEEDED.
   ELEMENT FINAL_PART-1.1 IS DISTORTING EXCESSIVELY.
   ELEMENT FINAL_PART-1.2 IS DISTORTING EXCESSIVELY.
   ELEMENT FINAL_PART-1.3 IS DISTORTING EXCESSIVELY.
   ELEMENT FINAL_PART-1.4 IS DISTORTING EXCESSIVELY.
   ELEMENT FINAL_PART-1.5 IS DISTORTING EXCESSIVELY.
   ELEMENT FINAL_PART-1.6 IS DISTORTING EXCESSIVELY.
   ELEMENT FINAL_PART-1.7 IS DISTORTING EXCESSIVELY.
   ELEMENT FINAL_PART-1.8 IS DISTORTING EXCESSIVELY.
   ELEMENT FINAL_PART-1.11 IS DISTORTING EXCESSIVELY.
   ELEMENT FINAL_PART-1.12 IS DISTORTING EXCESSIVELY.
   ELEMENT FINAL_PART-1.13 IS DISTORTING EXCESSIVELY.
   ELEMENT FINAL_PART-1.14 IS DISTORTING EXCESSIVELY.
   ELEMENT FINAL_PART-1.15 IS DISTORTING EXCESSIVELY.
   ELEMENT FINAL_PART-1.16 IS DISTORTING EXCESSIVELY.
   ELEMENT FINAL_PART-1.17 IS DISTORTING EXCESSIVELY.
   ELEMENT FINAL_PART-1.19 IS DISTORTING EXCESSIVELY.
   ELEMENT FINAL_PART-1.20 IS DISTORTING EXCESSIVELY.
   ELEMENT FINAL_PART-1.21 IS DISTORTING EXCESSIVELY.
   ELEMENT FINAL_PART-1.22 IS DISTORTING EXCESSIVELY.
   ELEMENT FINAL_PART-1.23 IS DISTORTING EXCESSIVELY.
   ELEMENT FINAL_PART-1.25 IS DISTORTING EXCESSIVELY.
   ELEMENT FINAL_PART-1.26 IS DISTORTING EXCESSIVELY.
   ELEMENT FINAL_PART-1.27 IS DISTORTING EXCESSIVELY.
   ELEMENT FINAL_PART-1.28 IS DISTORTING EXCESSIVELY.
   ELEMENT FINAL_PART-1.29 IS DISTORTING EXCESSIVELY.
   ELEMENT FINAL_PART-1.30 IS DISTORTING EXCESSIVELY.
   ELEMENT FINAL_PART-1.31 IS DISTORTING EXCESSIVELY.
   ELEMENT FINAL_PART-1.32 IS DISTORTING EXCESSIVELY.
   ELEMENT FINAL_PART-1.34 IS DISTORTING EXCESSIVELY.
   ELEMENT FINAL_PART-1.35 IS DISTORTING EXCESSIVELY.
   ELEMENT FINAL_PART-1.36 IS DISTORTING EXCESSIVELY.
   ELEMENT FINAL_PART-1.37 IS DISTORTING EXCESSIVELY.
   ELEMENT FINAL_PART-1.38 IS DISTORTING EXCESSIVELY.
   ELEMENT FINAL_PART-1.39 IS DISTORTING EXCESSIVELY.
   ELEMENT FINAL_PART-1.40 IS DISTORTING EXCESSIVELY.
   ELEMENT FINAL_PART-1.41 IS DISTORTING EXCESSIVELY.
   ELEMENT FINAL_PART-1.42 IS DISTORTING EXCESSIVELY.
   ELEMENT FINAL_PART-1.43 IS DISTORTING EXCESSIVELY.
   ELEMENT FINAL_PART-1.44 IS DISTORTING EXCESSIVELY.
   ELEMENT FINAL_PART-1.45 IS DISTORTING EXCESSIVELY.
   ELEMENT FINAL_PART-1.46 IS DISTORTING EXCESSIVELY.
   ELEMENT FINAL_PART-1.47 IS DISTORTING EXCESSIVELY.
   ELEMENT FINAL_PART-1.48 IS DISTORTING EXCESSIVELY.
   ELEMENT FINAL_PART-1.49 IS DISTORTING EXCESSIVELY.
   ELEMENT FINAL_PART-1.50 IS DISTORTING EXCESSIVELY.
   ELEMENT FINAL_PART-1.51 IS DISTORTING EXCESSIVELY.
   ELEMENT FINAL_PART-1.52 IS DISTORTING EXCESSIVELY.
   ELEMENT FINAL_PART-1.53 IS DISTORTING EXCESSIVELY.
   ELEMENT FINAL_PART-1.54 IS DISTORTING EXCESSIVELY.
   ELEMENT FINAL_PART-1.56 IS DISTORTING EXCESSIVELY.
   ELEMENT FINAL_PART-1.59 IS DISTORTING EXCESSIVELY.
   ELEMENT FINAL_PART-1.60 IS DISTORTING EXCESSIVELY.
   ELEMENT FINAL_PART-1.62 IS DISTORTING EXCESSIVELY.
   ELEMENT FINAL_PART-1.63 IS DISTORTING EXCESSIVELY.
   ELEMENT FINAL_PART-1.64 IS DISTORTING EXCESSIVELY.
   ELEMENT FINAL_PART-1.65 IS DISTORTING EXCESSIVELY.
   ELEMENT FINAL_PART-1.66 IS DISTORTING EXCESSIVELY.
   ELEMENT FINAL_PART-1.67 IS DISTORTING EXCESSIVELY.
   ELEMENT FINAL_PART-1.68 IS DISTORTING EXCESSIVELY.
   ELEMENT FINAL_PART-1.69 IS DISTORTING EXCESSIVELY.
   ELEMENT FINAL_PART-1.70 IS DISTORTING EXCESSIVELY.
   ELEMENT FINAL_PART-1.71 IS DISTORTING EXCESSIVELY.
   ELEMENT FINAL_PART-1.72 IS DISTORTING EXCESSIVELY.
   ELEMENT FINAL_PART-1.74 IS DISTORTING EXCESSIVELY.
   ELEMENT FINAL_PART-1.75 IS DISTORTING EXCESSIVELY.
   ELEMENT FINAL_PART-1.76 IS DISTORTING EXCESSIVELY.
   ELEMENT FINAL_PART-1.78 IS DISTORTING EXCESSIVELY.
   ELEMENT FINAL_PART-1.79 IS DISTORTING EXCESSIVELY.
   ELEMENT FINAL_PART-1.80 IS DISTORTING EXCESSIVELY.
   ELEMENT FINAL_PART-1.82 IS DISTORTING EXCESSIVELY.
   ELEMENT FINAL_PART-1.84 IS DISTORTING EXCESSIVELY.
   ELEMENT FINAL_PART-1.85 IS DISTORTING EXCESSIVELY.
   ELEMENT FINAL_PART-1.86 IS DISTORTING EXCESSIVELY.
   ELEMENT FINAL_PART-1.87 IS DISTORTING EXCESSIVELY.
   ELEMENT FINAL_PART-1.88 IS DISTORTING EXCESSIVELY.
   ELEMENT FINAL_PART-1.89 IS DISTORTING EXCESSIVELY.
   ELEMENT FINAL_PART-1.90 IS DISTORTING EXCESSIVELY.
   ELEMENT FINAL_PART-1.91 IS DISTORTING EXCESSIVELY.
   ELEMENT FINAL_PART-1.92 IS DISTORTING EXCESSIVELY.
   ELEMENT FINAL_PART-1.93 IS DISTORTING EXCESSIVELY.
   ELEMENT FINAL_PART-1.94 IS DISTORTING EXCESSIVELY.
   ELEMENT FINAL_PART-1.95 IS DISTORTING EXCESSIVELY.
   ELEMENT FINAL_PART-1.96 IS DISTORTING EXCESSIVELY.
   ELEMENT FINAL_PART-1.97 IS DISTORTING EXCESSIVELY.
   ELEMENT FINAL_PART-1.98 IS DISTORTING EXCESSIVELY.
   ELEMENT FINAL_PART-1.99 IS DISTORTING EXCESSIVELY.
   ELEMENT FINAL_PART-1.100 IS DISTORTING EXCESSIVELY.
   ELEMENT FINAL_PART-1.101 IS DISTORTING EXCESSIVELY.
   ELEMENT FINAL_PART-1.102 IS DISTORTING EXCESSIVELY.
   ELEMENT FINAL_PART-1.104 IS DISTORTING EXCESSIVELY.
   ELEMENT FINAL_PART-1.108 IS DISTORTING EXCESSIVELY.
   ELEMENT FINAL_PART-1.110 IS DISTORTING EXCESSIVELY.
   ELEMENT FINAL_PART-1.111 IS DISTORTING EXCESSIVELY.
   ELEMENT FINAL_PART-1.112 IS DISTORTING EXCESSIVELY.
   ELEMENT FINAL_PART-1.122 IS DISTORTING EXCESSIVELY.
   ELEMENT FINAL_PART-1.123 IS DISTORTING EXCESSIVELY.
   ELEMENT FINAL_PART-1.127 IS DISTORTING EXCESSIVELY.
   ELEMENT FINAL_PART-1.129 IS DISTORTING EXCESSIVELY.
   ELEMENT FINAL_PART-1.131 IS DISTORTING EXCESSIVELY.
   ELEMENT FINAL_PART-1.133 IS DISTORTING EXCESSIVELY.
   ELEMENT FINAL_PART-1.134 IS DISTORTING EXCESSIVELY.
   ELEMENT FINAL_PART-1.135 IS DISTORTING EXCESSIVELY.
   ELEMENT FINAL_PART-1.143 IS DISTORTING EXCESSIVELY.
   ELEMENT FINAL_PART-1.153 IS DISTORTING EXCESSIVELY.
   ELEMENT FINAL_PART-1.154 IS DISTORTING EXCESSIVELY.
   ELEMENT FINAL_PART-1.155 IS DISTORTING EXCESSIVELY.
   ELEMENT FINAL_PART-1.160 IS DISTORTING EXCESSIVELY.
   ELEMENT FINAL_PART-1.171 IS DISTORTING EXCESSIVELY.
   ELEMENT FINAL_PART-1.173 IS DISTORTING EXCESSIVELY.
   ELEMENT FINAL_PART-1.174 IS DISTORTING EXCESSIVELY.
   ELEMENT FINAL_PART-1.177 IS DISTORTING EXCESSIVELY.
   ELEMENT FINAL_PART-1.179 IS DISTORTING EXCESSIVELY.
   ELEMENT FINAL_PART-1.180 IS DISTORTING EXCESSIVELY.
   ELEMENT FINAL_PART-1.181 IS DISTORTING EXCESSIVELY.
   ELEMENT FINAL_PART-1.182 IS DISTORTING EXCESSIVELY.
   ELEMENT FINAL_PART-1.184 IS DISTORTING EXCESSIVELY.
   ELEMENT FINAL_PART-1.185 IS DISTORTING EXCESSIVELY.
   ELEMENT FINAL_PART-1.186 IS DISTORTING EXCESSIVELY.
   ELEMENT FINAL_PART-1.189 IS DISTORTING EXCESSIVELY.
   ELEMENT FINAL_PART-1.190 IS DISTORTING EXCESSIVELY.
   ELEMENT FINAL_PART-1.192 IS DISTORTING EXCESSIVELY.
   ELEMENT FINAL_PART-1.193 IS DISTORTING EXCESSIVELY.
   ELEMENT FINAL_PART-1.194 IS DISTORTING EXCESSIVELY.
   ELEMENT FINAL_PART-1.195 IS DISTORTING EXCESSIVELY.
   ELEMENT FINAL_PART-1.196 IS DISTORTING EXCESSIVELY.
   ELEMENT FINAL_PART-1.197 IS DISTORTING EXCESSIVELY.
   ELEMENT FINAL_PART-1.198 IS DISTORTING EXCESSIVELY.
   ELEMENT FINAL_PART-1.199 IS DISTORTING EXCESSIVELY.
   ELEMENT FINAL_PART-1.200 IS DISTORTING EXCESSIVELY.
   ELEMENT FINAL_PART-1.202 IS DISTORTING EXCESSIVELY.
   ELEMENT FINAL_PART-1.203 IS DISTORTING EXCESSIVELY.
   ELEMENT FINAL_PART-1.206 IS DISTORTING EXCESSIVELY.
   ELEMENT FINAL_PART-1.207 IS DISTORTING EXCESSIVELY.
   ELEMENT FINAL_PART-1.208 IS DISTORTING EXCESSIVELY.
   ELEMENT FINAL_PART-1.209 IS DISTORTING EXCESSIVELY.
   ELEMENT FINAL_PART-1.210 IS DISTORTING EXCESSIVELY.
   ELEMENT FINAL_PART-1.211 IS DISTORTING EXCESSIVELY.
   ELEMENT FINAL_PART-1.212 IS DISTORTING EXCESSIVELY.
   ELEMENT FINAL_PART-1.214 IS DISTORTING EXCESSIVELY.
   ELEMENT FINAL_PART-1.215 IS DISTORTING EXCESSIVELY.
   ELEMENT FINAL_PART-1.216 IS DISTORTING EXCESSIVELY.
   ELEMENT FINAL_PART-1.217 IS DISTORTING EXCESSIVELY.
   ELEMENT FINAL_PART-1.218 IS DISTORTING EXCESSIVELY.
   ELEMENT FINAL_PART-1.219 IS DISTORTING EXCESSIVELY.
   ELEMENT FINAL_PART-1.220 IS DISTORTING EXCESSIVELY.
   ELEMENT FINAL_PART-1.221 IS DISTORTING EXCESSIVELY.
   ELEMENT FINAL_PART-1.222 IS DISTORTING EXCESSIVELY.
   ELEMENT FINAL_PART-1.223 IS DISTORTING EXCESSIVELY.
   ELEMENT FINAL_PART-1.224 IS DISTORTING EXCESSIVELY.
   ELEMENT FINAL_PART-1.225 IS DISTORTING EXCESSIVELY.
   ELEMENT FINAL_PART-1.226 IS DISTORTING EXCESSIVELY.
   ELEMENT FINAL_PART-1.227 IS DISTORTING EXCESSIVELY.
   ELEMENT FINAL_PART-1.228 IS DISTORTING EXCESSIVELY.
   ELEMENT FINAL_PART-1.229 IS DISTORTING EXCESSIVELY.
   ELEMENT FINAL_PART-1.230 IS DISTORTING EXCESSIVELY.
   ELEMENT FINAL_PART-1.231 IS DISTORTING EXCESSIVELY.
   ELEMENT FINAL_PART-1.232 IS DISTORTING EXCESSIVELY.
   ELEMENT FINAL_PART-1.233 IS DISTORTING EXCESSIVELY.
   ELEMENT FINAL_PART-1.234 IS DISTORTING EXCESSIVELY.
   ELEMENT FINAL_PART-1.235 IS DISTORTING EXCESSIVELY.
   ELEMENT FINAL_PART-1.236 IS DISTORTING EXCESSIVELY.
   ELEMENT FINAL_PART-1.238 IS DISTORTING EXCESSIVELY.
   ELEMENT FINAL_PART-1.241 IS DISTORTING EXCESSIVELY.
   ELEMENT FINAL_PART-1.242 IS DISTORTING EXCESSIVELY.
   ELEMENT FINAL_PART-1.244 IS DISTORTING EXCESSIVELY.
   ELEMENT FINAL_PART-1.245 IS DISTORTING EXCESSIVELY.
   ELEMENT FINAL_PART-1.247 IS DISTORTING EXCESSIVELY.
   ELEMENT FINAL_PART-1.248 IS DISTORTING EXCESSIVELY.
   ELEMENT FINAL_PART-1.249 IS DISTORTING EXCESSIVELY.
   ELEMENT FINAL_PART-1.250 IS DISTORTING EXCESSIVELY.
   ELEMENT FINAL_PART-1.251 IS DISTORTING EXCESSIVELY.
   ELEMENT FINAL_PART-1.255 IS DISTORTING EXCESSIVELY.
   ELEMENT FINAL_PART-1.256 IS DISTORTING EXCESSIVELY.
   ELEMENT FINAL_PART-1.257 IS DISTORTING EXCESSIVELY.
   ELEMENT FINAL_PART-1.258 IS DISTORTING EXCESSIVELY.
   ELEMENT FINAL_PART-1.259 IS DISTORTING EXCESSIVELY.
   ELEMENT FINAL_PART-1.260 IS DISTORTING EXCESSIVELY.
   ELEMENT FINAL_PART-1.261 IS DISTORTING EXCESSIVELY.
   ELEMENT FINAL_PART-1.262 IS DISTORTING EXCESSIVELY.
   ELEMENT FINAL_PART-1.263 IS DISTORTING EXCESSIVELY.
   ELEMENT FINAL_PART-1.265 IS DISTORTING EXCESSIVELY.
   ELEMENT FINAL_PART-1.266 IS DISTORTING EXCESSIVELY.
   ELEMENT FINAL_PART-1.267 IS DISTORTING EXCESSIVELY.
   ELEMENT FINAL_PART-1.268 IS DISTORTING EXCESSIVELY.
   ELEMENT FINAL_PART-1.270 IS DISTORTING EXCESSIVELY.
   ELEMENT FINAL_PART-1.271 IS DISTORTING EXCESSIVELY.
   ELEMENT FINAL_PART-1.273 IS DISTORTING EXCESSIVELY.
   ELEMENT FINAL_PART-1.274 IS DISTORTING EXCESSIVELY.
   ELEMENT FINAL_PART-1.275 IS DISTORTING EXCESSIVELY.
   ELEMENT FINAL_PART-1.276 IS DISTORTING EXCESSIVELY.
   ELEMENT FINAL_PART-1.277 IS DISTORTING EXCESSIVELY.
   ELEMENT FINAL_PART-1.278 IS DISTORTING EXCESSIVELY.
   ELEMENT FINAL_PART-1.279 IS DISTORTING EXCESSIVELY.
   ELEMENT FINAL_PART-1.280 IS DISTORTING EXCESSIVELY.
   ELEMENT FINAL_PART-1.281 IS DISTORTING EXCESSIVELY.
   ELEMENT FINAL_PART-1.282 IS DISTORTING EXCESSIVELY.
   ELEMENT FINAL_PART-1.283 IS DISTORTING EXCESSIVELY.
   ELEMENT FINAL_PART-1.284 IS DISTORTING EXCESSIVELY.
   ELEMENT FINAL_PART-1.285 IS DISTORTING EXCESSIVELY.
   ELEMENT FINAL_PART-1.286 IS DISTORTING EXCESSIVELY.
   ELEMENT FINAL_PART-1.287 IS DISTORTING EXCESSIVELY.
   ELEMENT FINAL_PART-1.288 IS DISTORTING EXCESSIVELY.
   ELEMENT FINAL_PART-1.289 IS DISTORTING EXCESSIVELY.
   ELEMENT FINAL_PART-1.290 IS DISTORTING EXCESSIVELY.
   ELEMENT FINAL_PART-1.291 IS DISTORTING EXCESSIVELY.
   ELEMENT FINAL_PART-1.292 IS DISTORTING EXCESSIVELY.
   ELEMENT FINAL_PART-1.293 IS DISTORTING EXCESSIVELY.
   ELEMENT FINAL_PART-1.295 IS DISTORTING EXCESSIVELY.
   ELEMENT FINAL_PART-1.296 IS DISTORTING EXCESSIVELY.
   ELEMENT FINAL_PART-1.298 IS DISTORTING EXCESSIVELY.
   ELEMENT FINAL_PART-1.299 IS DISTORTING EXCESSIVELY.
   ELEMENT FINAL_PART-1.300 IS DISTORTING EXCESSIVELY.
   ELEMENT FINAL_PART-1.301 IS DISTORTING EXCESSIVELY.
   ELEMENT FINAL_PART-1.302 IS DISTORTING EXCESSIVELY.
   ELEMENT FINAL_PART-1.303 IS DISTORTING EXCESSIVELY.
   ELEMENT FINAL_PART-1.304 IS DISTORTING EXCESSIVELY.
   ELEMENT FINAL_PART-1.305 IS DISTORTING EXCESSIVELY.
   ELEMENT FINAL_PART-1.306 IS DISTORTING EXCESSIVELY.
   ELEMENT FINAL_PART-1.307 IS DISTORTING EXCESSIVELY.
   ELEMENT FINAL_PART-1.308 IS DISTORTING EXCESSIVELY.
   ELEMENT FINAL_PART-1.309 IS DISTORTING EXCESSIVELY.
   ELEMENT FINAL_PART-1.311 IS DISTORTING EXCESSIVELY.
   ELEMENT FINAL_PART-1.312 IS DISTORTING EXCESSIVELY.
   ELEMENT FINAL_PART-1.313 IS DISTORTING EXCESSIVELY.
   ELEMENT FINAL_PART-1.314 IS DISTORTING EXCESSIVELY.
   ELEMENT FINAL_PART-1.315 IS DISTORTING EXCESSIVELY.
   ELEMENT FINAL_PART-1.316 IS DISTORTING EXCESSIVELY.
   ELEMENT FINAL_PART-1.317 IS DISTORTING EXCESSIVELY.
   ELEMENT FINAL_PART-1.318 IS DISTORTING EXCESSIVELY.
   ELEMENT FINAL_PART-1.320 IS DISTORTING EXCESSIVELY.
   ELEMENT FINAL_PART-1.322 IS DISTORTING EXCESSIVELY.
   ELEMENT FINAL_PART-1.323 IS DISTORTING EXCESSIVELY.
   ELEMENT FINAL_PART-1.324 IS DISTORTING EXCESSIVELY.
   ELEMENT FINAL_PART-1.325 IS DISTORTING EXCESSIVELY.
   ELEMENT FINAL_PART-1.327 IS DISTORTING EXCESSIVELY.
   ELEMENT FINAL_PART-1.328 IS DISTORTING EXCESSIVELY.
   ELEMENT FINAL_PART-1.329 IS DISTORTING EXCESSIVELY.
   ELEMENT FINAL_PART-1.333 IS DISTORTING EXCESSIVELY.
   ELEMENT FINAL_PART-1.335 IS DISTORTING EXCESSIVELY.
   ELEMENT FINAL_PART-1.336 IS DISTORTING EXCESSIVELY.
   ELEMENT FINAL_PART-1.340 IS DISTORTING EXCESSIVELY.
   ELEMENT FINAL_PART-1.341 IS DISTORTING EXCESSIVELY.
   ELEMENT FINAL_PART-1.342 IS DISTORTING EXCESSIVELY.
   ELEMENT FINAL_PART-1.343 IS DISTORTING EXCESSIVELY.
   ELEMENT FINAL_PART-1.345 IS DISTORTING EXCESSIVELY.
   ELEMENT FINAL_PART-1.346 IS DISTORTING EXCESSIVELY.
   ELEMENT FINAL_PART-1.347 IS DISTORTING EXCESSIVELY.
   ELEMENT FINAL_PART-1.349 IS DISTORTING EXCESSIVELY.
   ELEMENT FINAL_PART-1.351 IS DISTORTING EXCESSIVELY.
   ELEMENT FINAL_PART-1.352 IS DISTORTING EXCESSIVELY.
   ELEMENT FINAL_PART-1.358 IS DISTORTING EXCESSIVELY.
   ELEMENT FINAL_PART-1.359 IS DISTORTING EXCESSIVELY.
   ELEMENT FINAL_PART-1.360 IS DISTORTING EXCESSIVELY.
   ELEMENT FINAL_PART-1.361 IS DISTORTING EXCESSIVELY.
   ELEMENT FINAL_PART-1.365 IS DISTORTING EXCESSIVELY.
   ELEMENT FINAL_PART-1.369 IS DISTORTING EXCESSIVELY.
   ELEMENT FINAL_PART-1.370 IS DISTORTING EXCESSIVELY.
   ELEMENT FINAL_PART-1.371 IS DISTORTING EXCESSIVELY.
   ELEMENT FINAL_PART-1.372 IS DISTORTING EXCESSIVELY.
   ELEMENT FINAL_PART-1.373 IS DISTORTING EXCESSIVELY.
   ELEMENT FINAL_PART-1.376 IS DISTORTING EXCESSIVELY.
   ELEMENT FINAL_PART-1.377 IS DISTORTING EXCESSIVELY.
   ELEMENT FINAL_PART-1.378 IS DISTORTING EXCESSIVELY.
   ELEMENT FINAL_PART-1.380 IS DISTORTING EXCESSIVELY.
   ELEMENT FINAL_PART-1.381 IS DISTORTING EXCESSIVELY.
   ELEMENT FINAL_PART-1.387 IS DISTORTING EXCESSIVELY.
   ELEMENT FINAL_PART-1.391 IS DISTORTING EXCESSIVELY.
   ELEMENT FINAL_PART-1.393 IS DISTORTING EXCESSIVELY.
   ELEMENT FINAL_PART-1.395 IS DISTORTING EXCESSIVELY.
   ELEMENT FINAL_PART-1.402 IS DISTORTING EXCESSIVELY.
   ELEMENT FINAL_PART-1.406 IS DISTORTING EXCESSIVELY.
   ELEMENT FINAL_PART-1.407 IS DISTORTING EXCESSIVELY.
   ELEMENT FINAL_PART-1.413 IS DISTORTING EXCESSIVELY.
   ELEMENT FINAL_PART-1.414 IS DISTORTING EXCESSIVELY.
   ELEMENT FINAL_PART-1.417 IS DISTORTING EXCESSIVELY.
   ELEMENT FINAL_PART-1.418 IS DISTORTING EXCESSIVELY.
   ELEMENT FINAL_PART-1.419 IS DISTORTING EXCESSIVELY.
   ELEMENT FINAL_PART-1.421 IS DISTORTING EXCESSIVELY.
   ELEMENT FINAL_PART-1.426 IS DISTORTING EXCESSIVELY.
   ELEMENT FINAL_PART-1.429 IS DISTORTING EXCESSIVELY.
   ELEMENT FINAL_PART-1.430 IS DISTORTING EXCESSIVELY.
   ELEMENT FINAL_PART-1.433 IS DISTORTING EXCESSIVELY.
   ELEMENT FINAL_PART-1.434 IS DISTORTING EXCESSIVELY.
   ELEMENT FINAL_PART-1.435 IS DISTORTING EXCESSIVELY.
   ELEMENT FINAL_PART-1.437 IS DISTORTING EXCESSIVELY.
   ELEMENT FINAL_PART-1.438 IS DISTORTING EXCESSIVELY.
   ELEMENT FINAL_PART-1.440 IS DISTORTING EXCESSIVELY.
   ELEMENT FINAL_PART-1.443 IS DISTORTING EXCESSIVELY.
   ELEMENT FINAL_PART-1.444 IS DISTORTING EXCESSIVELY.
   ELEMENT FINAL_PART-1.445 IS DISTORTING EXCESSIVELY.
   ELEMENT FINAL_PART-1.446 IS DISTORTING EXCESSIVELY.
   ELEMENT FINAL_PART-1.447 IS DISTORTING EXCESSIVELY.
   ELEMENT FINAL_PART-1.448 IS DISTORTING EXCESSIVELY.
   ELEMENT FINAL_PART-1.449 IS DISTORTING EXCESSIVELY.
   ELEMENT FINAL_PART-1.450 IS DISTORTING EXCESSIVELY.
   ELEMENT FINAL_PART-1.451 IS DISTORTING EXCESSIVELY.
   ELEMENT FINAL_PART-1.452 IS DISTORTING EXCESSIVELY.
   ELEMENT FINAL_PART-1.453 IS DISTORTING EXCESSIVELY.
   ELEMENT FINAL_PART-1.455 IS DISTORTING EXCESSIVELY.
   ELEMENT FINAL_PART-1.456 IS DISTORTING EXCESSIVELY.
   ELEMENT FINAL_PART-1.457 IS DISTORTING EXCESSIVELY.
   ELEMENT FINAL_PART-1.458 IS DISTORTING EXCESSIVELY.
   ELEMENT FINAL_PART-1.459 IS DISTORTING EXCESSIVELY.
   ELEMENT FINAL_PART-1.460 IS DISTORTING EXCESSIVELY.
   ELEMENT FINAL_PART-1.461 IS DISTORTING EXCESSIVELY.
   ELEMENT FINAL_PART-1.462 IS DISTORTING EXCESSIVELY.
   ELEMENT FINAL_PART-1.463 IS DISTORTING EXCESSIVELY.
   ELEMENT FINAL_PART-1.464 IS DISTORTING EXCESSIVELY.
   ELEMENT FINAL_PART-1.465 IS DISTORTING EXCESSIVELY.
   ELEMENT FINAL_PART-1.466 IS DISTORTING EXCESSIVELY.
   ELEMENT FINAL_PART-1.467 IS DISTORTING EXCESSIVELY.
   ELEMENT FINAL_PART-1.468 IS DISTORTING EXCESSIVELY.
   ELEMENT FINAL_PART-1.470 IS DISTORTING EXCESSIVELY.
   ELEMENT FINAL_PART-1.472 IS DISTORTING EXCESSIVELY.
   ELEMENT FINAL_PART-1.473 IS DISTORTING EXCESSIVELY.
   ELEMENT FINAL_PART-1.474 IS DISTORTING EXCESSIVELY.
   ELEMENT FINAL_PART-1.475 IS DISTORTING EXCESSIVELY.
   ELEMENT FINAL_PART-1.477 IS DISTORTING EXCESSIVELY.
   ELEMENT FINAL_PART-1.479 IS DISTORTING EXCESSIVELY.
   ELEMENT FINAL_PART-1.481 IS DISTORTING EXCESSIVELY.
   ELEMENT FINAL_PART-1.484 IS DISTORTING EXCESSIVELY.
   ELEMENT FINAL_PART-1.487 IS DISTORTING EXCESSIVELY.
   ELEMENT FINAL_PART-1.488 IS DISTORTING EXCESSIVELY.
   ELEMENT FINAL_PART-1.490 IS DISTORTING EXCESSIVELY.
   ELEMENT FINAL_PART-1.491 IS DISTORTING EXCESSIVELY.
   ELEMENT FINAL_PART-1.492 IS DISTORTING EXCESSIVELY.
   ELEMENT FINAL_PART-1.493 IS DISTORTING EXCESSIVELY.
   ELEMENT FINAL_PART-1.494 IS DISTORTING EXCESSIVELY.
   ELEMENT FINAL_PART-1.495 IS DISTORTING EXCESSIVELY.
   ELEMENT FINAL_PART-1.496 IS DISTORTING EXCESSIVELY.
   ELEMENT FINAL_PART-1.497 IS DISTORTING EXCESSIVELY.
   ELEMENT FINAL_PART-1.498 IS DISTORTING EXCESSIVELY.
   ELEMENT FINAL_PART-1.499 IS DISTORTING EXCESSIVELY.
   ELEMENT FINAL_PART-1.500 IS DISTORTING EXCESSIVELY.
   ELEMENT FINAL_PART-1.501 IS DISTORTING EXCESSIVELY.
   ELEMENT FINAL_PART-1.502 IS DISTORTING EXCESSIVELY.
   ELEMENT FINAL_PART-1.503 IS DISTORTING EXCESSIVELY.
   ELEMENT FINAL_PART-1.504 IS DISTORTING EXCESSIVELY.
   ELEMENT FINAL_PART-1.505 IS DISTORTING EXCESSIVELY.
   ELEMENT FINAL_PART-1.506 IS DISTORTING EXCESSIVELY.
   ELEMENT FINAL_PART-1.507 IS DISTORTING EXCESSIVELY.
   ELEMENT FINAL_PART-1.508 IS DISTORTING EXCESSIVELY.
   ELEMENT FINAL_PART-1.509 IS DISTORTING EXCESSIVELY.
   ELEMENT FINAL_PART-1.510 IS DISTORTING EXCESSIVELY.
   ELEMENT FINAL_PART-1.511 IS DISTORTING EXCESSIVELY.
   ELEMENT FINAL_PART-1.512 IS DISTORTING EXCESSIVELY.
   ELEMENT FINAL_PART-1.513 IS DISTORTING EXCESSIVELY.
   ELEMENT FINAL_PART-1.514 IS DISTORTING EXCESSIVELY.
   ELEMENT FINAL_PART-1.515 IS DISTORTING EXCESSIVELY.
   ELEMENT FINAL_PART-1.517 IS DISTORTING EXCESSIVELY.
   ELEMENT FINAL_PART-1.518 IS DISTORTING EXCESSIVELY.
   ELEMENT FINAL_PART-1.519 IS DISTORTING EXCESSIVELY.
   ELEMENT FINAL_PART-1.520 IS DISTORTING EXCESSIVELY.
   ELEMENT FINAL_PART-1.521 IS DISTORTING EXCESSIVELY.
   ELEMENT FINAL_PART-1.522 IS DISTORTING EXCESSIVELY.
   ELEMENT FINAL_PART-1.523 IS DISTORTING EXCESSIVELY.
   ELEMENT FINAL_PART-1.525 IS DISTORTING EXCESSIVELY.
   ELEMENT FINAL_PART-1.526 IS DISTORTING EXCESSIVELY.
   ELEMENT FINAL_PART-1.527 IS DISTORTING EXCESSIVELY.
   ELEMENT FINAL_PART-1.528 IS DISTORTING EXCESSIVELY.
   ELEMENT FINAL_PART-1.529 IS DISTORTING EXCESSIVELY.
   ELEMENT FINAL_PART-1.530 IS DISTORTING EXCESSIVELY.
   ELEMENT FINAL_PART-1.531 IS DISTORTING EXCESSIVELY.
   ELEMENT FINAL_PART-1.532 IS DISTORTING EXCESSIVELY.
   ELEMENT FINAL_PART-1.533 IS DISTORTING EXCESSIVELY.
   ELEMENT FINAL_PART-1.536 IS DISTORTING EXCESSIVELY.
   ELEMENT FINAL_PART-1.537 IS DISTORTING EXCESSIVELY.
   ELEMENT FINAL_PART-1.538 IS DISTORTING EXCESSIVELY.
   ELEMENT FINAL_PART-1.539 IS DISTORTING EXCESSIVELY.
   ELEMENT FINAL_PART-1.540 IS DISTORTING EXCESSIVELY.
   ELEMENT FINAL_PART-1.541 IS DISTORTING EXCESSIVELY.
   ELEMENT FINAL_PART-1.542 IS DISTORTING EXCESSIVELY.
   ELEMENT FINAL_PART-1.543 IS DISTORTING EXCESSIVELY.
   ELEMENT FINAL_PART-1.544 IS DISTORTING EXCESSIVELY.
   ELEMENT FINAL_PART-1.545 IS DISTORTING EXCESSIVELY.
   ELEMENT FINAL_PART-1.546 IS DISTORTING EXCESSIVELY.
   ELEMENT FINAL_PART-1.547 IS DISTORTING EXCESSIVELY.
   ELEMENT FINAL_PART-1.548 IS DISTORTING EXCESSIVELY.
   ELEMENT FINAL_PART-1.549 IS DISTORTING EXCESSIVELY.
   ELEMENT FINAL_PART-1.550 IS DISTORTING EXCESSIVELY.
   ELEMENT FINAL_PART-1.551 IS DISTORTING EXCESSIVELY.
   ELEMENT FINAL_PART-1.552 IS DISTORTING EXCESSIVELY.
   ELEMENT FINAL_PART-1.553 IS DISTORTING EXCESSIVELY.
   ELEMENT FINAL_PART-1.554 IS DISTORTING EXCESSIVELY.
   ELEMENT FINAL_PART-1.555 IS DISTORTING EXCESSIVELY.
   ELEMENT FINAL_PART-1.556 IS DISTORTING EXCESSIVELY.
   ELEMENT FINAL_PART-1.558 IS DISTORTING EXCESSIVELY.
   ELEMENT FINAL_PART-1.559 IS DISTORTING EXCESSIVELY.
   ELEMENT FINAL_PART-1.560 IS DISTORTING EXCESSIVELY.
   ELEMENT FINAL_PART-1.561 IS DISTORTING EXCESSIVELY.
   ELEMENT FINAL_PART-1.562 IS DISTORTING EXCESSIVELY.
   ELEMENT FINAL_PART-1.564 IS DISTORTING EXCESSIVELY.
   ELEMENT FINAL_PART-1.565 IS DISTORTING EXCESSIVELY.
   ELEMENT FINAL_PART-1.567 IS DISTORTING EXCESSIVELY.
   ELEMENT FINAL_PART-1.570 IS DISTORTING EXCESSIVELY.
   ELEMENT FINAL_PART-1.572 IS DISTORTING EXCESSIVELY.
   ELEMENT FINAL_PART-1.573 IS DISTORTING EXCESSIVELY.
   ELEMENT FINAL_PART-1.574 IS DISTORTING EXCESSIVELY.
   ELEMENT FINAL_PART-1.576 IS DISTORTING EXCESSIVELY.
   ELEMENT FINAL_PART-1.577 IS DISTORTING EXCESSIVELY.
   ELEMENT FINAL_PART-1.578 IS DISTORTING EXCESSIVELY.
   ELEMENT FINAL_PART-1.580 IS DISTORTING EXCESSIVELY.
   ELEMENT FINAL_PART-1.581 IS DISTORTING EXCESSIVELY.
   ELEMENT FINAL_PART-1.582 IS DISTORTING EXCESSIVELY.
   ELEMENT FINAL_PART-1.583 IS DISTORTING EXCESSIVELY.
   ELEMENT FINAL_PART-1.584 IS DISTORTING EXCESSIVELY.
   ELEMENT FINAL_PART-1.585 IS DISTORTING EXCESSIVELY.
   ELEMENT FINAL_PART-1.586 IS DISTORTING EXCESSIVELY.
   ELEMENT FINAL_PART-1.587 IS DISTORTING EXCESSIVELY.
   ELEMENT FINAL_PART-1.588 IS DISTORTING EXCESSIVELY.
   ELEMENT FINAL_PART-1.589 IS DISTORTING EXCESSIVELY.
   ELEMENT FINAL_PART-1.590 IS DISTORTING EXCESSIVELY.
   ELEMENT FINAL_PART-1.592 IS DISTORTING EXCESSIVELY.
   ELEMENT FINAL_PART-1.593 IS DISTORTING EXCESSIVELY.
   ELEMENT FINAL_PART-1.594 IS DISTORTING EXCESSIVELY.
   ELEMENT FINAL_PART-1.595 IS DISTORTING EXCESSIVELY.
   ELEMENT FINAL_PART-1.596 IS DISTORTING EXCESSIVELY.
   ELEMENT FINAL_PART-1.597 IS DISTORTING EXCESSIVELY.
   ELEMENT FINAL_PART-1.598 IS DISTORTING EXCESSIVELY.
   ELEMENT FINAL_PART-1.601 IS DISTORTING EXCESSIVELY.
   ELEMENT FINAL_PART-1.602 IS DISTORTING EXCESSIVELY.
   ELEMENT FINAL_PART-1.603 IS DISTORTING EXCESSIVELY.
   ELEMENT FINAL_PART-1.604 IS DISTORTING EXCESSIVELY.
   ELEMENT FINAL_PART-1.605 IS DISTORTING EXCESSIVELY.
   ELEMENT FINAL_PART-1.606 IS DISTORTING EXCESSIVELY.
   ELEMENT FINAL_PART-1.608 IS DISTORTING EXCESSIVELY.
   ELEMENT FINAL_PART-1.618 IS DISTORTING EXCESSIVELY.
   ELEMENT FINAL_PART-1.619 IS DISTORTING EXCESSIVELY.
   ELEMENT FINAL_PART-1.623 IS DISTORTING EXCESSIVELY.
   ELEMENT FINAL_PART-1.625 IS DISTORTING EXCESSIVELY.
   ELEMENT FINAL_PART-1.628 IS DISTORTING EXCESSIVELY.
   ELEMENT FINAL_PART-1.632 IS DISTORTING EXCESSIVELY.
   ELEMENT FINAL_PART-1.633 IS DISTORTING EXCESSIVELY.
   ELEMENT FINAL_PART-1.638 IS DISTORTING EXCESSIVELY.
   ELEMENT FINAL_PART-1.642 IS DISTORTING EXCESSIVELY.
   ELEMENT FINAL_PART-1.644 IS DISTORTING EXCESSIVELY.
   ELEMENT FINAL_PART-1.647 IS DISTORTING EXCESSIVELY.
   ELEMENT FINAL_PART-1.649 IS DISTORTING EXCESSIVELY.
   ELEMENT FINAL_PART-1.654 IS DISTORTING EXCESSIVELY.
   ELEMENT FINAL_PART-1.658 IS DISTORTING EXCESSIVELY.
   ELEMENT FINAL_PART-1.660 IS DISTORTING EXCESSIVELY.
   ELEMENT FINAL_PART-1.666 IS DISTORTING EXCESSIVELY.
   ELEMENT FINAL_PART-1.668 IS DISTORTING EXCESSIVELY.
   ELEMENT FINAL_PART-1.671 IS DISTORTING EXCESSIVELY.
   ELEMENT FINAL_PART-1.676 IS DISTORTING EXCESSIVELY.
   ELEMENT FINAL_PART-1.680 IS DISTORTING EXCESSIVELY.
   ELEMENT FINAL_PART-1.686 IS DISTORTING EXCESSIVELY.
   ELEMENT FINAL_PART-1.687 IS DISTORTING EXCESSIVELY.
   ELEMENT FINAL_PART-1.689 IS DISTORTING EXCESSIVELY.
   ELEMENT FINAL_PART-1.690 IS DISTORTING EXCESSIVELY.
   ELEMENT FINAL_PART-1.692 IS DISTORTING EXCESSIVELY.
   ELEMENT FINAL_PART-1.694 IS DISTORTING EXCESSIVELY.
   ELEMENT FINAL_PART-1.697 IS DISTORTING EXCESSIVELY.
   ELEMENT FINAL_PART-1.707 IS DISTORTING EXCESSIVELY.
   ELEMENT FINAL_PART-1.709 IS DISTORTING EXCESSIVELY.
   ELEMENT FINAL_PART-1.710 IS DISTORTING EXCESSIVELY.
   ELEMENT FINAL_PART-1.718 IS DISTORTING EXCESSIVELY.
   ELEMENT FINAL_PART-1.720 IS DISTORTING EXCESSIVELY.
   ELEMENT FINAL_PART-1.724 IS DISTORTING EXCESSIVELY.
   ELEMENT FINAL_PART-1.726 IS DISTORTING EXCESSIVELY.
   ELEMENT FINAL_PART-1.728 IS DISTORTING EXCESSIVELY.
   ELEMENT FINAL_PART-1.730 IS DISTORTING EXCESSIVELY.
   ELEMENT FINAL_PART-1.731 IS DISTORTING EXCESSIVELY.
   ELEMENT FINAL_PART-1.732 IS DISTORTING EXCESSIVELY.
   ELEMENT FINAL_PART-1.734 IS DISTORTING EXCESSIVELY.
   ELEMENT FINAL_PART-1.735 IS DISTORTING EXCESSIVELY.
   ELEMENT FINAL_PART-1.736 IS DISTORTING EXCESSIVELY.
   ELEMENT FINAL_PART-1.738 IS DISTORTING EXCESSIVELY.
   ELEMENT FINAL_PART-1.739 IS DISTORTING EXCESSIVELY.
   ELEMENT FINAL_PART-1.741 IS DISTORTING EXCESSIVELY.
   ELEMENT FINAL_PART-1.743 IS DISTORTING EXCESSIVELY.
   ELEMENT FINAL_PART-1.744 IS DISTORTING EXCESSIVELY.
   ELEMENT FINAL_PART-1.745 IS DISTORTING EXCESSIVELY.
   ELEMENT FINAL_PART-1.746 IS DISTORTING EXCESSIVELY.
   ELEMENT FINAL_PART-1.747 IS DISTORTING EXCESSIVELY.
   ELEMENT FINAL_PART-1.748 IS DISTORTING EXCESSIVELY.
   ELEMENT FINAL_PART-1.749 IS DISTORTING EXCESSIVELY.
   ELEMENT FINAL_PART-1.750 IS DISTORTING EXCESSIVELY.
   ELEMENT FINAL_PART-1.751 IS DISTORTING EXCESSIVELY.
   ELEMENT FINAL_PART-1.752 IS DISTORTING EXCESSIVELY.
   ELEMENT FINAL_PART-1.753 IS DISTORTING EXCESSIVELY.
   ELEMENT FINAL_PART-1.754 IS DISTORTING EXCESSIVELY.
   ELEMENT FINAL_PART-1.755 IS DISTORTING EXCESSIVELY.
   ELEMENT FINAL_PART-1.756 IS DISTORTING EXCESSIVELY.
   ELEMENT FINAL_PART-1.757 IS DISTORTING EXCESSIVELY.
   ELEMENT FINAL_PART-1.758 IS DISTORTING EXCESSIVELY.
   ELEMENT FINAL_PART-1.759 IS DISTORTING EXCESSIVELY.
   ELEMENT FINAL_PART-1.760 IS DISTORTING EXCESSIVELY.
   ELEMENT FINAL_PART-1.761 IS DISTORTING EXCESSIVELY.
   ELEMENT FINAL_PART-1.762 IS DISTORTING EXCESSIVELY.
   ELEMENT FINAL_PART-1.763 IS DISTORTING EXCESSIVELY.
   ELEMENT FINAL_PART-1.764 IS DISTORTING EXCESSIVELY.
   ELEMENT FINAL_PART-1.765 IS DISTORTING EXCESSIVELY.
   ELEMENT FINAL_PART-1.766 IS DISTORTING EXCESSIVELY.
   ELEMENT FINAL_PART-1.767 IS DISTORTING EXCESSIVELY.
   ELEMENT FINAL_PART-1.768 IS DISTORTING EXCESSIVELY.
   ELEMENT FINAL_PART-1.769 IS DISTORTING EXCESSIVELY.
   ELEMENT FINAL_PART-1.770 IS DISTORTING EXCESSIVELY.
   ELEMENT FINAL_PART-1.771 IS DISTORTING EXCESSIVELY.
   ELEMENT FINAL_PART-1.772 IS DISTORTING EXCESSIVELY.
   ELEMENT FINAL_PART-1.773 IS DISTORTING EXCESSIVELY.
   ELEMENT FINAL_PART-1.775 IS DISTORTING EXCESSIVELY.
   ELEMENT FINAL_PART-1.776 IS DISTORTING EXCESSIVELY.
   ELEMENT FINAL_PART-1.780 IS DISTORTING EXCESSIVELY.
   ELEMENT FINAL_PART-1.781 IS DISTORTING EXCESSIVELY.
   ELEMENT FINAL_PART-1.784 IS DISTORTING EXCESSIVELY.
   ELEMENT FINAL_PART-1.785 IS DISTORTING EXCESSIVELY.
   ELEMENT FINAL_PART-1.786 IS DISTORTING EXCESSIVELY.
   ELEMENT FINAL_PART-1.788 IS DISTORTING EXCESSIVELY.
   ELEMENT FINAL_PART-1.789 IS DISTORTING EXCESSIVELY.
   ELEMENT FINAL_PART-1.790 IS DISTORTING EXCESSIVELY.
   ELEMENT FINAL_PART-1.793 IS DISTORTING EXCESSIVELY.
   ELEMENT FINAL_PART-1.794 IS DISTORTING EXCESSIVELY.
   ELEMENT FINAL_PART-1.795 IS DISTORTING EXCESSIVELY.
   ELEMENT FINAL_PART-1.796 IS DISTORTING EXCESSIVELY.
   ELEMENT FINAL_PART-1.797 IS DISTORTING EXCESSIVELY.
   ELEMENT FINAL_PART-1.798 IS DISTORTING EXCESSIVELY.
   ELEMENT FINAL_PART-1.799 IS DISTORTING EXCESSIVELY.
   ELEMENT FINAL_PART-1.801 IS DISTORTING EXCESSIVELY.
   ELEMENT FINAL_PART-1.802 IS DISTORTING EXCESSIVELY.
   ELEMENT FINAL_PART-1.803 IS DISTORTING EXCESSIVELY.
   ELEMENT FINAL_PART-1.804 IS DISTORTING EXCESSIVELY.
   ELEMENT FINAL_PART-1.805 IS DISTORTING EXCESSIVELY.
   ELEMENT FINAL_PART-1.806 IS DISTORTING EXCESSIVELY.
   ELEMENT FINAL_PART-1.809 IS DISTORTING EXCESSIVELY.
   ELEMENT FINAL_PART-1.810 IS DISTORTING EXCESSIVELY.
   ELEMENT FINAL_PART-1.811 IS DISTORTING EXCESSIVELY.
   ELEMENT FINAL_PART-1.812 IS DISTORTING EXCESSIVELY.
   ELEMENT FINAL_PART-1.813 IS DISTORTING EXCESSIVELY.
   ELEMENT FINAL_PART-1.814 IS DISTORTING EXCESSIVELY.
   ELEMENT FINAL_PART-1.815 IS DISTORTING EXCESSIVELY.
   ELEMENT FINAL_PART-1.817 IS DISTORTING EXCESSIVELY.
   ELEMENT FINAL_PART-1.818 IS DISTORTING EXCESSIVELY.
   ELEMENT FINAL_PART-1.819 IS DISTORTING EXCESSIVELY.
   ELEMENT FINAL_PART-1.820 IS DISTORTING EXCESSIVELY.
   ELEMENT FINAL_PART-1.821 IS DISTORTING EXCESSIVELY.
   ELEMENT FINAL_PART-1.822 IS DISTORTING EXCESSIVELY.
   ELEMENT FINAL_PART-1.823 IS DISTORTING EXCESSIVELY.
   ELEMENT FINAL_PART-1.824 IS DISTORTING EXCESSIVELY.
   ELEMENT FINAL_PART-1.825 IS DISTORTING EXCESSIVELY.
   ELEMENT FINAL_PART-1.826 IS DISTORTING EXCESSIVELY.
   ELEMENT FINAL_PART-1.827 IS DISTORTING EXCESSIVELY.
   ELEMENT FINAL_PART-1.828 IS DISTORTING EXCESSIVELY.
   ELEMENT FINAL_PART-1.829 IS DISTORTING EXCESSIVELY.
   ELEMENT FINAL_PART-1.830 IS DISTORTING EXCESSIVELY.
   ELEMENT FINAL_PART-1.831 IS DISTORTING EXCESSIVELY.
   ELEMENT FINAL_PART-1.833 IS DISTORTING EXCESSIVELY.
   ELEMENT FINAL_PART-1.834 IS DISTORTING EXCESSIVELY.
   ELEMENT FINAL_PART-1.835 IS DISTORTING EXCESSIVELY.
   ELEMENT FINAL_PART-1.839 IS DISTORTING EXCESSIVELY.
   ELEMENT FINAL_PART-1.840 IS DISTORTING EXCESSIVELY.
   ELEMENT FINAL_PART-1.841 IS DISTORTING EXCESSIVELY.
   ELEMENT FINAL_PART-1.842 IS DISTORTING EXCESSIVELY.
   ELEMENT FINAL_PART-1.843 IS DISTORTING EXCESSIVELY.
   ELEMENT FINAL_PART-1.845 IS DISTORTING EXCESSIVELY.
   ELEMENT FINAL_PART-1.847 IS DISTORTING EXCESSIVELY.
   ELEMENT FINAL_PART-1.848 IS DISTORTING EXCESSIVELY.
   ELEMENT FINAL_PART-1.849 IS DISTORTING EXCESSIVELY.
   ELEMENT FINAL_PART-1.850 IS DISTORTING EXCESSIVELY.
   ELEMENT FINAL_PART-1.851 IS DISTORTING EXCESSIVELY.
   ELEMENT FINAL_PART-1.852 IS DISTORTING EXCESSIVELY.
   ELEMENT FINAL_PART-1.853 IS DISTORTING EXCESSIVELY.
   ELEMENT FINAL_PART-1.854 IS DISTORTING EXCESSIVELY.
   ELEMENT FINAL_PART-1.855 IS DISTORTING EXCESSIVELY.
   ELEMENT FINAL_PART-1.856 IS DISTORTING EXCESSIVELY.
   ELEMENT FINAL_PART-1.858 IS DISTORTING EXCESSIVELY.
   ELEMENT FINAL_PART-1.859 IS DISTORTING EXCESSIVELY.
   ELEMENT FINAL_PART-1.860 IS DISTORTING EXCESSIVELY.
   ELEMENT FINAL_PART-1.862 IS DISTORTING EXCESSIVELY.
   ELEMENT FINAL_PART-1.863 IS DISTORTING EXCESSIVELY.
   ELEMENT FINAL_PART-1.864 IS DISTORTING EXCESSIVELY.
   ELEMENT FINAL_PART-1.865 IS DISTORTING EXCESSIVELY.
   ELEMENT FINAL_PART-1.867 IS DISTORTING EXCESSIVELY.
   ELEMENT FINAL_PART-1.869 IS DISTORTING EXCESSIVELY.
   ELEMENT FINAL_PART-1.870 IS DISTORTING EXCESSIVELY.
   ELEMENT FINAL_PART-1.871 IS DISTORTING EXCESSIVELY.
   ELEMENT FINAL_PART-1.872 IS DISTORTING EXCESSIVELY.
   ELEMENT FINAL_PART-1.873 IS DISTORTING EXCESSIVELY.
   ELEMENT FINAL_PART-1.874 IS DISTORTING EXCESSIVELY.
   ELEMENT FINAL_PART-1.875 IS DISTORTING EXCESSIVELY.
   ELEMENT FINAL_PART-1.877 IS DISTORTING EXCESSIVELY.
   ELEMENT FINAL_PART-1.878 IS DISTORTING EXCESSIVELY.
   ELEMENT FINAL_PART-1.879 IS DISTORTING EXCESSIVELY.
   ELEMENT FINAL_PART-1.880 IS DISTORTING EXCESSIVELY.
   ELEMENT FINAL_PART-1.881 IS DISTORTING EXCESSIVELY.
   ELEMENT FINAL_PART-1.882 IS DISTORTING EXCESSIVELY.
   ELEMENT FINAL_PART-1.883 IS DISTORTING EXCESSIVELY.
   ELEMENT FINAL_PART-1.884 IS DISTORTING EXCESSIVELY.
   ELEMENT FINAL_PART-1.885 IS DISTORTING EXCESSIVELY.
   ELEMENT FINAL_PART-1.887 IS DISTORTING EXCESSIVELY.
   ELEMENT FINAL_PART-1.888 IS DISTORTING EXCESSIVELY.
   ELEMENT FINAL_PART-1.889 IS DISTORTING EXCESSIVELY.
   ELEMENT FINAL_PART-1.891 IS DISTORTING EXCESSIVELY.
   ELEMENT FINAL_PART-1.893 IS DISTORTING EXCESSIVELY.
   ELEMENT FINAL_PART-1.896 IS DISTORTING EXCESSIVELY.
   ELEMENT FINAL_PART-1.897 IS DISTORTING EXCESSIVELY.
   ELEMENT FINAL_PART-1.902 IS DISTORTING EXCESSIVELY.
   ELEMENT FINAL_PART-1.905 IS DISTORTING EXCESSIVELY.
   ELEMENT FINAL_PART-1.906 IS DISTORTING EXCESSIVELY.
   ELEMENT FINAL_PART-1.907 IS DISTORTING EXCESSIVELY.
   ELEMENT FINAL_PART-1.910 IS DISTORTING EXCESSIVELY.
   ELEMENT FINAL_PART-1.912 IS DISTORTING EXCESSIVELY.
   ELEMENT FINAL_PART-1.915 IS DISTORTING EXCESSIVELY.
   ELEMENT FINAL_PART-1.916 IS DISTORTING EXCESSIVELY.
   ELEMENT FINAL_PART-1.917 IS DISTORTING EXCESSIVELY.
   ELEMENT FINAL_PART-1.918 IS DISTORTING EXCESSIVELY.
   ELEMENT FINAL_PART-1.919 IS DISTORTING EXCESSIVELY.
   ELEMENT FINAL_PART-1.920 IS DISTORTING EXCESSIVELY.
   ELEMENT FINAL_PART-1.922 IS DISTORTING EXCESSIVELY.
   ELEMENT FINAL_PART-1.923 IS DISTORTING EXCESSIVELY.
   ELEMENT FINAL_PART-1.924 IS DISTORTING EXCESSIVELY.
   ELEMENT FINAL_PART-1.927 IS DISTORTING EXCESSIVELY.
   ELEMENT FINAL_PART-1.928 IS DISTORTING EXCESSIVELY.
   ELEMENT FINAL_PART-1.929 IS DISTORTING EXCESSIVELY.
   ELEMENT FINAL_PART-1.931 IS DISTORTING EXCESSIVELY.
   ELEMENT FINAL_PART-1.932 IS DISTORTING EXCESSIVELY.
   ELEMENT FINAL_PART-1.933 IS DISTORTING EXCESSIVELY.
   ELEMENT FINAL_PART-1.934 IS DISTORTING EXCESSIVELY.
   ELEMENT FINAL_PART-1.935 IS DISTORTING EXCESSIVELY.
   ELEMENT FINAL_PART-1.937 IS DISTORTING EXCESSIVELY.
   ELEMENT FINAL_PART-1.938 IS DISTORTING EXCESSIVELY.
   ELEMENT FINAL_PART-1.939 IS DISTORTING EXCESSIVELY.
   ELEMENT FINAL_PART-1.941 IS DISTORTING EXCESSIVELY.
   ELEMENT FINAL_PART-1.944 IS DISTORTING EXCESSIVELY.
   ELEMENT FINAL_PART-1.945 IS DISTORTING EXCESSIVELY.
   ELEMENT FINAL_PART-1.946 IS DISTORTING EXCESSIVELY.
   ELEMENT FINAL_PART-1.947 IS DISTORTING EXCESSIVELY.
   ELEMENT FINAL_PART-1.949 IS DISTORTING EXCESSIVELY.
   ELEMENT FINAL_PART-1.954 IS DISTORTING EXCESSIVELY.
   ELEMENT FINAL_PART-1.955 IS DISTORTING EXCESSIVELY.
   ELEMENT FINAL_PART-1.957 IS DISTORTING EXCESSIVELY.
   ELEMENT FINAL_PART-1.958 IS DISTORTING EXCESSIVELY.
   ELEMENT FINAL_PART-1.959 IS DISTORTING EXCESSIVELY.
   ELEMENT FINAL_PART-1.960 IS DISTORTING EXCESSIVELY.
   ELEMENT FINAL_PART-1.963 IS DISTORTING EXCESSIVELY.
   ELEMENT FINAL_PART-1.966 IS DISTORTING EXCESSIVELY.
   ELEMENT FINAL_PART-1.967 IS DISTORTING EXCESSIVELY.
   ELEMENT FINAL_PART-1.973 IS DISTORTING EXCESSIVELY.
   ELEMENT FINAL_PART-1.974 IS DISTORTING EXCESSIVELY.
   ELEMENT FINAL_PART-1.977 IS DISTORTING EXCESSIVELY.
   ELEMENT FINAL_PART-1.978 IS DISTORTING EXCESSIVELY.
   ELEMENT FINAL_PART-1.979 IS DISTORTING EXCESSIVELY.
   ELEMENT FINAL_PART-1.980 IS DISTORTING EXCESSIVELY.
   ELEMENT FINAL_PART-1.981 IS DISTORTING EXCESSIVELY.
   ELEMENT FINAL_PART-1.982 IS DISTORTING EXCESSIVELY.
   ELEMENT FINAL_PART-1.986 IS DISTORTING EXCESSIVELY.
   ELEMENT FINAL_PART-1.989 IS DISTORTING EXCESSIVELY.
   ELEMENT FINAL_PART-1.990 IS DISTORTING EXCESSIVELY.
   ELEMENT FINAL_PART-1.997 IS DISTORTING EXCESSIVELY.
   ELEMENT FINAL_PART-1.998 IS DISTORTING EXCESSIVELY.
   ELEMENT FINAL_PART-1.999 IS DISTORTING EXCESSIVELY.
   ELEMENT FINAL_PART-1.1000 IS DISTORTING EXCESSIVELY.
   ELEMENT FINAL_PART-1.1004 IS DISTORTING EXCESSIVELY.
   ELEMENT FINAL_PART-1.1006 IS DISTORTING EXCESSIVELY.
   ELEMENT FINAL_PART-1.1007 IS DISTORTING EXCESSIVELY.
   ELEMENT FINAL_PART-1.1009 IS DISTORTING EXCESSIVELY.
   ELEMENT FINAL_PART-1.1011 IS DISTORTING EXCESSIVELY.
   ELEMENT FINAL_PART-1.1014 IS DISTORTING EXCESSIVELY.
   ELEMENT FINAL_PART-1.1015 IS DISTORTING EXCESSIVELY.
   ELEMENT FINAL_PART-1.1017 IS DISTORTING EXCESSIVELY.
   ELEMENT FINAL_PART-1.1018 IS DISTORTING EXCESSIVELY.
   ELEMENT FINAL_PART-1.1021 IS DISTORTING EXCESSIVELY.
   ELEMENT FINAL_PART-1.1023 IS DISTORTING EXCESSIVELY.
   ELEMENT FINAL_PART-1.1029 IS DISTORTING EXCESSIVELY.
   ELEMENT FINAL_PART-1.1031 IS DISTORTING EXCESSIVELY.
   ELEMENT FINAL_PART-1.1033 IS DISTORTING EXCESSIVELY.
   ELEMENT FINAL_PART-1.1034 IS DISTORTING EXCESSIVELY.
   ELEMENT FINAL_PART-1.1038 IS DISTORTING EXCESSIVELY.
   ELEMENT FINAL_PART-1.1041 IS DISTORTING EXCESSIVELY.
   ELEMENT FINAL_PART-1.1042 IS DISTORTING EXCESSIVELY.
   ELEMENT FINAL_PART-1.1043 IS DISTORTING EXCESSIVELY.
   ELEMENT FINAL_PART-1.1044 IS DISTORTING EXCESSIVELY.
   ELEMENT FINAL_PART-1.1046 IS DISTORTING EXCESSIVELY.
   ELEMENT FINAL_PART-1.1047 IS DISTORTING EXCESSIVELY.
   ELEMENT FINAL_PART-1.1048 IS DISTORTING EXCESSIVELY.
   ELEMENT FINAL_PART-1.1051 IS DISTORTING EXCESSIVELY.
   ELEMENT FINAL_PART-1.1052 IS DISTORTING EXCESSIVELY.
   ELEMENT FINAL_PART-1.1053 IS DISTORTING EXCESSIVELY.
   ELEMENT FINAL_PART-1.1055 IS DISTORTING EXCESSIVELY.
   ELEMENT FINAL_PART-1.1057 IS DISTORTING EXCESSIVELY.
   ELEMENT FINAL_PART-1.1058 IS DISTORTING EXCESSIVELY.
   ELEMENT FINAL_PART-1.1059 IS DISTORTING EXCESSIVELY.
   ELEMENT FINAL_PART-1.1061 IS DISTORTING EXCESSIVELY.
   ELEMENT FINAL_PART-1.1064 IS DISTORTING EXCESSIVELY.
   ELEMENT FINAL_PART-1.1068 IS DISTORTING EXCESSIVELY.
   ELEMENT FINAL_PART-1.1069 IS DISTORTING EXCESSIVELY.
   ELEMENT FINAL_PART-1.1071 IS DISTORTING EXCESSIVELY.
   ELEMENT FINAL_PART-1.1073 IS DISTORTING EXCESSIVELY.
   ELEMENT FINAL_PART-1.1074 IS DISTORTING EXCESSIVELY.
   ELEMENT FINAL_PART-1.1075 IS DISTORTING EXCESSIVELY.
   ELEMENT FINAL_PART-1.1078 IS DISTORTING EXCESSIVELY.
   ELEMENT FINAL_PART-1.1079 IS DISTORTING EXCESSIVELY.
   ELEMENT FINAL_PART-1.1081 IS DISTORTING EXCESSIVELY.
   ELEMENT FINAL_PART-1.1082 IS DISTORTING EXCESSIVELY.
   ELEMENT FINAL_PART-1.1083 IS DISTORTING EXCESSIVELY.
   ELEMENT FINAL_PART-1.1084 IS DISTORTING EXCESSIVELY.
   ELEMENT FINAL_PART-1.1085 IS DISTORTING EXCESSIVELY.
   ELEMENT FINAL_PART-1.1088 IS DISTORTING EXCESSIVELY.
   ELEMENT FINAL_PART-1.1089 IS DISTORTING EXCESSIVELY.
   ELEMENT FINAL_PART-1.1090 IS DISTORTING EXCESSIVELY.
   ELEMENT FINAL_PART-1.1091 IS DISTORTING EXCESSIVELY.
   ELEMENT FINAL_PART-1.1092 IS DISTORTING EXCESSIVELY.
   ELEMENT FINAL_PART-1.1093 IS DISTORTING EXCESSIVELY.
   ELEMENT FINAL_PART-1.1098 IS DISTORTING EXCESSIVELY.
   ELEMENT FINAL_PART-1.1100 IS DISTORTING EXCESSIVELY.
   ELEMENT FINAL_PART-1.1106 IS DISTORTING EXCESSIVELY.
   ELEMENT FINAL_PART-1.1108 IS DISTORTING EXCESSIVELY.
   ELEMENT FINAL_PART-1.1109 IS DISTORTING EXCESSIVELY.
   ELEMENT FINAL_PART-1.1110 IS DISTORTING EXCESSIVELY.
   ELEMENT FINAL_PART-1.1113 IS DISTORTING EXCESSIVELY.
   ELEMENT FINAL_PART-1.1114 IS DISTORTING EXCESSIVELY.
   ELEMENT FINAL_PART-1.1115 IS DISTORTING EXCESSIVELY.
   ELEMENT FINAL_PART-1.1117 IS DISTORTING EXCESSIVELY.
   ELEMENT FINAL_PART-1.1118 IS DISTORTING EXCESSIVELY.
   ELEMENT FINAL_PART-1.1119 IS DISTORTING EXCESSIVELY.
   ELEMENT FINAL_PART-1.1120 IS DISTORTING EXCESSIVELY.
   ELEMENT FINAL_PART-1.1122 IS DISTORTING EXCESSIVELY.
   ELEMENT FINAL_PART-1.1123 IS DISTORTING EXCESSIVELY.
   ELEMENT FINAL_PART-1.1124 IS DISTORTING EXCESSIVELY.
   ELEMENT FINAL_PART-1.1125 IS DISTORTING EXCESSIVELY.
   ELEMENT FINAL_PART-1.1127 IS DISTORTING EXCESSIVELY.
   ELEMENT FINAL_PART-1.1129 IS DISTORTING EXCESSIVELY.
   ELEMENT FINAL_PART-1.1130 IS DISTORTING EXCESSIVELY.
   ELEMENT FINAL_PART-1.1131 IS DISTORTING EXCESSIVELY.
   ELEMENT FINAL_PART-1.1132 IS DISTORTING EXCESSIVELY.
   ELEMENT FINAL_PART-1.1133 IS DISTORTING EXCESSIVELY.
   ELEMENT FINAL_PART-1.1134 IS DISTORTING EXCESSIVELY.
   ELEMENT FINAL_PART-1.1135 IS DISTORTING EXCESSIVELY.
   ELEMENT FINAL_PART-1.1136 IS DISTORTING EXCESSIVELY.
   ELEMENT FINAL_PART-1.1137 IS DISTORTING EXCESSIVELY.
   ELEMENT FINAL_PART-1.1138 IS DISTORTING EXCESSIVELY.
   ELEMENT FINAL_PART-1.1139 IS DISTORTING EXCESSIVELY.
   ELEMENT FINAL_PART-1.1140 IS DISTORTING EXCESSIVELY.
   ELEMENT FINAL_PART-1.1141 IS DISTORTING EXCESSIVELY.
   ELEMENT FINAL_PART-1.1142 IS DISTORTING EXCESSIVELY.
   ELEMENT FINAL_PART-1.1143 IS DISTORTING EXCESSIVELY.
   ELEMENT FINAL_PART-1.1144 IS DISTORTING EXCESSIVELY.
   ELEMENT FINAL_PART-1.1145 IS DISTORTING EXCESSIVELY.
   ELEMENT FINAL_PART-1.1146 IS DISTORTING EXCESSIVELY.
   ELEMENT FINAL_PART-1.1147 IS DISTORTING EXCESSIVELY.
   ELEMENT FINAL_PART-1.1148 IS DISTORTING EXCESSIVELY.
   ELEMENT FINAL_PART-1.1149 IS DISTORTING EXCESSIVELY.
   ELEMENT FINAL_PART-1.1150 IS DISTORTING EXCESSIVELY.
   ELEMENT FINAL_PART-1.1151 IS DISTORTING EXCESSIVELY.
   ELEMENT FINAL_PART-1.1153 IS DISTORTING EXCESSIVELY.
   ELEMENT FINAL_PART-1.1154 IS DISTORTING EXCESSIVELY.
   ELEMENT FINAL_PART-1.1155 IS DISTORTING EXCESSIVELY.
   ELEMENT FINAL_PART-1.1156 IS DISTORTING EXCESSIVELY.
   ELEMENT FINAL_PART-1.1157 IS DISTORTING EXCESSIVELY.
   ELEMENT FINAL_PART-1.1158 IS DISTORTING EXCESSIVELY.
   ELEMENT FINAL_PART-1.1159 IS DISTORTING EXCESSIVELY.
   ELEMENT FINAL_PART-1.1160 IS DISTORTING EXCESSIVELY.
   ELEMENT FINAL_PART-1.1162 IS DISTORTING EXCESSIVELY.
   ELEMENT FINAL_PART-1.1163 IS DISTORTING EXCESSIVELY.
   ELEMENT FINAL_PART-1.1164 IS DISTORTING EXCESSIVELY.
   ELEMENT FINAL_PART-1.1165 IS DISTORTING EXCESSIVELY.
   ELEMENT FINAL_PART-1.1166 IS DISTORTING EXCESSIVELY.
   ELEMENT FINAL_PART-1.1167 IS DISTORTING EXCESSIVELY.
   ELEMENT FINAL_PART-1.1168 IS DISTORTING EXCESSIVELY.
   ELEMENT FINAL_PART-1.1169 IS DISTORTING EXCESSIVELY.
   ELEMENT FINAL_PART-1.1170 IS DISTORTING EXCESSIVELY.
   ELEMENT FINAL_PART-1.1171 IS DISTORTING EXCESSIVELY.
   ELEMENT FINAL_PART-1.1172 IS DISTORTING EXCESSIVELY.
   ELEMENT FINAL_PART-1.1174 IS DISTORTING EXCESSIVELY.
   ELEMENT FINAL_PART-1.1175 IS DISTORTING EXCESSIVELY.
   ELEMENT FINAL_PART-1.1176 IS DISTORTING EXCESSIVELY.
   ELEMENT FINAL_PART-1.1177 IS DISTORTING EXCESSIVELY.
   ELEMENT FINAL_PART-1.1178 IS DISTORTING EXCESSIVELY.
   ELEMENT FINAL_PART-1.1179 IS DISTORTING EXCESSIVELY.
   ELEMENT FINAL_PART-1.1180 IS DISTORTING EXCESSIVELY.
   ELEMENT FINAL_PART-1.1181 IS DISTORTING EXCESSIVELY.
   ELEMENT FINAL_PART-1.1182 IS DISTORTING EXCESSIVELY.
   ELEMENT FINAL_PART-1.1183 IS DISTORTING EXCESSIVELY.
   ELEMENT FINAL_PART-1.1184 IS DISTORTING EXCESSIVELY.
   ELEMENT FINAL_PART-1.1187 IS DISTORTING EXCESSIVELY.
   ELEMENT FINAL_PART-1.1188 IS DISTORTING EXCESSIVELY.
   ELEMENT FINAL_PART-1.1189 IS DISTORTING EXCESSIVELY.
   ELEMENT FINAL_PART-1.1190 IS DISTORTING EXCESSIVELY.
   ELEMENT FINAL_PART-1.1191 IS DISTORTING EXCESSIVELY.
   ELEMENT FINAL_PART-1.1192 IS DISTORTING EXCESSIVELY.
   ELEMENT FINAL_PART-1.1193 IS DISTORTING EXCESSIVELY.
   ELEMENT FINAL_PART-1.1194 IS DISTORTING EXCESSIVELY.
   ELEMENT FINAL_PART-1.1195 IS DISTORTING EXCESSIVELY.
   ELEMENT FINAL_PART-1.1196 IS DISTORTING EXCESSIVELY.
   ELEMENT FINAL_PART-1.1197 IS DISTORTING EXCESSIVELY.
   ELEMENT FINAL_PART-1.1198 IS DISTORTING EXCESSIVELY.
   ELEMENT FINAL_PART-1.1199 IS DISTORTING EXCESSIVELY.
   ELEMENT FINAL_PART-1.1200 IS DISTORTING EXCESSIVELY.
   ELEMENT FINAL_PART-1.1201 IS DISTORTING EXCESSIVELY.
   ELEMENT FINAL_PART-1.1203 IS DISTORTING EXCESSIVELY.
   ELEMENT FINAL_PART-1.1204 IS DISTORTING EXCESSIVELY.
   ELEMENT FINAL_PART-1.1205 IS DISTORTING EXCESSIVELY.
   ELEMENT FINAL_PART-1.1206 IS DISTORTING EXCESSIVELY.
   ELEMENT FINAL_PART-1.1207 IS DISTORTING EXCESSIVELY.
   ELEMENT FINAL_PART-1.1208 IS DISTORTING EXCESSIVELY.
   ELEMENT FINAL_PART-1.1209 IS DISTORTING EXCESSIVELY.
   ELEMENT FINAL_PART-1.1210 IS DISTORTING EXCESSIVELY.
   ELEMENT FINAL_PART-1.1211 IS DISTORTING EXCESSIVELY.
   ELEMENT FINAL_PART-1.1212 IS DISTORTING EXCESSIVELY.
   ELEMENT FINAL_PART-1.1213 IS DISTORTING EXCESSIVELY.
   ELEMENT FINAL_PART-1.1214 IS DISTORTING EXCESSIVELY.
   ELEMENT FINAL_PART-1.1215 IS DISTORTING EXCESSIVELY.
   ELEMENT FINAL_PART-1.1216 IS DISTORTING EXCESSIVELY.
   ELEMENT FINAL_PART-1.1219 IS DISTORTING EXCESSIVELY.
   ELEMENT FINAL_PART-1.1220 IS DISTORTING EXCESSIVELY.
   ELEMENT FINAL_PART-1.1221 IS DISTORTING EXCESSIVELY.
   ELEMENT FINAL_PART-1.1223 IS DISTORTING EXCESSIVELY.
   ELEMENT FINAL_PART-1.1224 IS DISTORTING EXCESSIVELY.
   ELEMENT FINAL_PART-1.1225 IS DISTORTING EXCESSIVELY.
   ELEMENT FINAL_PART-1.1226 IS DISTORTING EXCESSIVELY.
   ELEMENT FINAL_PART-1.1228 IS DISTORTING EXCESSIVELY.
   ELEMENT FINAL_PART-1.1229 IS DISTORTING EXCESSIVELY.
   ELEMENT FINAL_PART-1.1230 IS DISTORTING EXCESSIVELY.
   ELEMENT FINAL_PART-1.1231 IS DISTORTING EXCESSIVELY.
   ELEMENT FINAL_PART-1.1233 IS DISTORTING EXCESSIVELY.
   ELEMENT FINAL_PART-1.1234 IS DISTORTING EXCESSIVELY.
   ELEMENT FINAL_PART-1.1235 IS DISTORTING EXCESSIVELY.
   ELEMENT FINAL_PART-1.1236 IS DISTORTING EXCESSIVELY.
   ELEMENT FINAL_PART-1.1238 IS DISTORTING EXCESSIVELY.
   ELEMENT FINAL_PART-1.1239 IS DISTORTING EXCESSIVELY.
   ELEMENT FINAL_PART-1.1240 IS DISTORTING EXCESSIVELY.
   ELEMENT FINAL_PART-1.1241 IS DISTORTING EXCESSIVELY.
   ELEMENT FINAL_PART-1.1243 IS DISTORTING EXCESSIVELY.
   ELEMENT FINAL_PART-1.1244 IS DISTORTING EXCESSIVELY.
   ELEMENT FINAL_PART-1.1246 IS DISTORTING EXCESSIVELY.
   ELEMENT FINAL_PART-1.1248 IS DISTORTING EXCESSIVELY.
   ELEMENT FINAL_PART-1.1249 IS DISTORTING EXCESSIVELY.
   ELEMENT FINAL_PART-1.1250 IS DISTORTING EXCESSIVELY.
   ELEMENT FINAL_PART-1.1251 IS DISTORTING EXCESSIVELY.
   ELEMENT FINAL_PART-1.1254 IS DISTORTING EXCESSIVELY.
   ELEMENT FINAL_PART-1.1255 IS DISTORTING EXCESSIVELY.
   ELEMENT FINAL_PART-1.1260 IS DISTORTING EXCESSIVELY.
   ELEMENT FINAL_PART-1.1265 IS DISTORTING EXCESSIVELY.
   ELEMENT FINAL_PART-1.1266 IS DISTORTING EXCESSIVELY.
   ELEMENT FINAL_PART-1.1268 IS DISTORTING EXCESSIVELY.
   ELEMENT FINAL_PART-1.1269 IS DISTORTING EXCESSIVELY.
   ELEMENT FINAL_PART-1.1272 IS DISTORTING EXCESSIVELY.
   ELEMENT FINAL_PART-1.1274 IS DISTORTING EXCESSIVELY.
   ELEMENT FINAL_PART-1.1275 IS DISTORTING EXCESSIVELY.
   ELEMENT FINAL_PART-1.1276 IS DISTORTING EXCESSIVELY.
   ELEMENT FINAL_PART-1.1278 IS DISTORTING EXCESSIVELY.
   ELEMENT FINAL_PART-1.1279 IS DISTORTING EXCESSIVELY.
   ELEMENT FINAL_PART-1.1280 IS DISTORTING EXCESSIVELY.
   ELEMENT FINAL_PART-1.1281 IS DISTORTING EXCESSIVELY.
   ELEMENT FINAL_PART-1.1282 IS DISTORTING EXCESSIVELY.
   ELEMENT FINAL_PART-1.1283 IS DISTORTING EXCESSIVELY.
   ELEMENT FINAL_PART-1.1284 IS DISTORTING EXCESSIVELY.
   ELEMENT FINAL_PART-1.1285 IS DISTORTING EXCESSIVELY.
   ELEMENT FINAL_PART-1.1286 IS DISTORTING EXCESSIVELY.
   ELEMENT FINAL_PART-1.1287 IS DISTORTING EXCESSIVELY.
   ELEMENT FINAL_PART-1.1288 IS DISTORTING EXCESSIVELY.
   ELEMENT FINAL_PART-1.1289 IS DISTORTING EXCESSIVELY.
   ELEMENT FINAL_PART-1.1290 IS DISTORTING EXCESSIVELY.
   ELEMENT FINAL_PART-1.1291 IS DISTORTING EXCESSIVELY.
   ELEMENT FINAL_PART-1.1292 IS DISTORTING EXCESSIVELY.
   ELEMENT FINAL_PART-1.1293 IS DISTORTING EXCESSIVELY.
   ELEMENT FINAL_PART-1.1294 IS DISTORTING EXCESSIVELY.
   ELEMENT FINAL_PART-1.1295 IS DISTORTING EXCESSIVELY.
   ELEMENT FINAL_PART-1.1296 IS DISTORTING EXCESSIVELY.
   ELEMENT FINAL_PART-1.1297 IS DISTORTING EXCESSIVELY.
   ELEMENT FINAL_PART-1.1298 IS DISTORTING EXCESSIVELY.
   ELEMENT FINAL_PART-1.1299 IS DISTORTING EXCESSIVELY.
   ELEMENT FINAL_PART-1.1300 IS DISTORTING EXCESSIVELY.
   ELEMENT FINAL_PART-1.1301 IS DISTORTING EXCESSIVELY.
   ELEMENT FINAL_PART-1.1302 IS DISTORTING EXCESSIVELY.
   ELEMENT FINAL_PART-1.1303 IS DISTORTING EXCESSIVELY.
   ELEMENT FINAL_PART-1.1304 IS DISTORTING EXCESSIVELY.
   ELEMENT FINAL_PART-1.1305 IS DISTORTING EXCESSIVELY.
   ELEMENT FINAL_PART-1.1306 IS DISTORTING EXCESSIVELY.
   ELEMENT FINAL_PART-1.1307 IS DISTORTING EXCESSIVELY.
   ELEMENT FINAL_PART-1.1308 IS DISTORTING EXCESSIVELY.
   ELEMENT FINAL_PART-1.1309 IS DISTORTING EXCESSIVELY.
   ELEMENT FINAL_PART-1.1310 IS DISTORTING EXCESSIVELY.
   ELEMENT FINAL_PART-1.1311 IS DISTORTING EXCESSIVELY.
   ELEMENT FINAL_PART-1.1312 IS DISTORTING EXCESSIVELY.
   ELEMENT FINAL_PART-1.1313 IS DISTORTING EXCESSIVELY.
   ELEMENT FINAL_PART-1.1314 IS DISTORTING EXCESSIVELY.
   ELEMENT FINAL_PART-1.1315 IS DISTORTING EXCESSIVELY.
   ELEMENT FINAL_PART-1.1317 IS DISTORTING EXCESSIVELY.
   ELEMENT FINAL_PART-1.1318 IS DISTORTING EXCESSIVELY.
   ELEMENT FINAL_PART-1.1320 IS DISTORTING EXCESSIVELY.
   ELEMENT FINAL_PART-1.1321 IS DISTORTING EXCESSIVELY.
   ELEMENT FINAL_PART-1.1322 IS DISTORTING EXCESSIVELY.
   ELEMENT FINAL_PART-1.1323 IS DISTORTING EXCESSIVELY.
   ELEMENT FINAL_PART-1.1324 IS DISTORTING EXCESSIVELY.
   ELEMENT FINAL_PART-1.1325 IS DISTORTING EXCESSIVELY.
   ELEMENT FINAL_PART-1.1326 IS DISTORTING EXCESSIVELY.
   ELEMENT FINAL_PART-1.1328 IS DISTORTING EXCESSIVELY.
   ELEMENT FINAL_PART-1.1329 IS DISTORTING EXCESSIVELY.
   ELEMENT FINAL_PART-1.1331 IS DISTORTING EXCESSIVELY.
   ELEMENT FINAL_PART-1.1332 IS DISTORTING EXCESSIVELY.
   ELEMENT FINAL_PART-1.1333 IS DISTORTING EXCESSIVELY.
   ELEMENT FINAL_PART-1.1334 IS DISTORTING EXCESSIVELY.
   ELEMENT FINAL_PART-1.1335 IS DISTORTING EXCESSIVELY.
   ELEMENT FINAL_PART-1.1336 IS DISTORTING EXCESSIVELY.
   ELEMENT FINAL_PART-1.1337 IS DISTORTING EXCESSIVELY.
   ELEMENT FINAL_PART-1.1340 IS DISTORTING EXCESSIVELY.
   ELEMENT FINAL_PART-1.1341 IS DISTORTING EXCESSIVELY.
   ELEMENT FINAL_PART-1.1342 IS DISTORTING EXCESSIVELY.
   ELEMENT FINAL_PART-1.1343 IS DISTORTING EXCESSIVELY.
   ELEMENT FINAL_PART-1.1344 IS DISTORTING EXCESSIVELY.
   ELEMENT FINAL_PART-1.1345 IS DISTORTING EXCESSIVELY.
   ELEMENT FINAL_PART-1.1346 IS DISTORTING EXCESSIVELY.
   ELEMENT FINAL_PART-1.1347 IS DISTORTING EXCESSIVELY.
   ELEMENT FINAL_PART-1.1348 IS DISTORTING EXCESSIVELY.
   ELEMENT FINAL_PART-1.1350 IS DISTORTING EXCESSIVELY.
   ELEMENT FINAL_PART-1.1351 IS DISTORTING EXCESSIVELY.
   ELEMENT FINAL_PART-1.1353 IS DISTORTING EXCESSIVELY.
   ELEMENT FINAL_PART-1.1354 IS DISTORTING EXCESSIVELY.
   ELEMENT FINAL_PART-1.1356 IS DISTORTING EXCESSIVELY.
   ELEMENT FINAL_PART-1.1357 IS DISTORTING EXCESSIVELY.
   ELEMENT FINAL_PART-1.1358 IS DISTORTING EXCESSIVELY.
   ELEMENT FINAL_PART-1.1359 IS DISTORTING EXCESSIVELY.
   ELEMENT FINAL_PART-1.1360 IS DISTORTING EXCESSIVELY.
   ELEMENT FINAL_PART-1.1361 IS DISTORTING EXCESSIVELY.
   ELEMENT FINAL_PART-1.1362 IS DISTORTING EXCESSIVELY.
   ELEMENT FINAL_PART-1.1363 IS DISTORTING EXCESSIVELY.
   ELEMENT FINAL_PART-1.1366 IS DISTORTING EXCESSIVELY.
   ELEMENT FINAL_PART-1.1367 IS DISTORTING EXCESSIVELY.
   ELEMENT FINAL_PART-1.1368 IS DISTORTING EXCESSIVELY.
   ELEMENT FINAL_PART-1.1369 IS DISTORTING EXCESSIVELY.
   ELEMENT FINAL_PART-1.1370 IS DISTORTING EXCESSIVELY.
   ELEMENT FINAL_PART-1.1371 IS DISTORTING EXCESSIVELY.
   ELEMENT FINAL_PART-1.1372 IS DISTORTING EXCESSIVELY.
   ELEMENT FINAL_PART-1.1374 IS DISTORTING EXCESSIVELY.
   ELEMENT FINAL_PART-1.1375 IS DISTORTING EXCESSIVELY.
   ELEMENT FINAL_PART-1.1380 IS DISTORTING EXCESSIVELY.
   ELEMENT FINAL_PART-1.1381 IS DISTORTING EXCESSIVELY.
   ELEMENT FINAL_PART-1.1382 IS DISTORTING EXCESSIVELY.
   ELEMENT FINAL_PART-1.1385 IS DISTORTING EXCESSIVELY.
   ELEMENT FINAL_PART-1.1386 IS DISTORTING EXCESSIVELY.
   ELEMENT FINAL_PART-1.1388 IS DISTORTING EXCESSIVELY.
   ELEMENT FINAL_PART-1.1390 IS DISTORTING EXCESSIVELY.
   ELEMENT FINAL_PART-1.1395 IS DISTORTING EXCESSIVELY.
   ELEMENT FINAL_PART-1.1397 IS DISTORTING EXCESSIVELY.
   ELEMENT FINAL_PART-1.1398 IS DISTORTING EXCESSIVELY.
   ELEMENT FINAL_PART-1.1399 IS DISTORTING EXCESSIVELY.
   ELEMENT FINAL_PART-1.1400 IS DISTORTING EXCESSIVELY.
   ELEMENT FINAL_PART-1.1401 IS DISTORTING EXCESSIVELY.
   ELEMENT FINAL_PART-1.1402 IS DISTORTING EXCESSIVELY.
   ELEMENT FINAL_PART-1.1403 IS DISTORTING EXCESSIVELY.
   ELEMENT FINAL_PART-1.1407 IS DISTORTING EXCESSIVELY.
   ELEMENT FINAL_PART-1.1416 IS DISTORTING EXCESSIVELY.
   ELEMENT FINAL_PART-1.1419 IS DISTORTING EXCESSIVELY.
   ELEMENT FINAL_PART-1.1421 IS DISTORTING EXCESSIVELY.
   ELEMENT FINAL_PART-1.1423 IS DISTORTING EXCESSIVELY.
   ELEMENT FINAL_PART-1.1425 IS DISTORTING EXCESSIVELY.
   ELEMENT FINAL_PART-1.1428 IS DISTORTING EXCESSIVELY.
   ELEMENT FINAL_PART-1.1431 IS DISTORTING EXCESSIVELY.
   ELEMENT FINAL_PART-1.1433 IS DISTORTING EXCESSIVELY.
   ELEMENT FINAL_PART-1.1434 IS DISTORTING EXCESSIVELY.
   ELEMENT FINAL_PART-1.1436 IS DISTORTING EXCESSIVELY.
   ELEMENT FINAL_PART-1.1439 IS DISTORTING EXCESSIVELY.
   ELEMENT FINAL_PART-1.1441 IS DISTORTING EXCESSIVELY.
   ELEMENT FINAL_PART-1.1442 IS DISTORTING EXCESSIVELY.
   ELEMENT FINAL_PART-1.1443 IS DISTORTING EXCESSIVELY.
   ELEMENT FINAL_PART-1.1448 IS DISTORTING EXCESSIVELY.
   ELEMENT FINAL_PART-1.1453 IS DISTORTING EXCESSIVELY.
   ELEMENT FINAL_PART-1.1455 IS DISTORTING EXCESSIVELY.
   ELEMENT FINAL_PART-1.1459 IS DISTORTING EXCESSIVELY.
   ELEMENT FINAL_PART-1.1461 IS DISTORTING EXCESSIVELY.
   ELEMENT FINAL_PART-1.1463 IS DISTORTING EXCESSIVELY.
   ELEMENT FINAL_PART-1.1467 IS DISTORTING EXCESSIVELY.
   ELEMENT FINAL_PART-1.1474 IS DISTORTING EXCESSIVELY.
   ELEMENT FINAL_PART-1.1475 IS DISTORTING EXCESSIVELY.
   ELEMENT FINAL_PART-1.1479 IS DISTORTING EXCESSIVELY.
   ELEMENT FINAL_PART-1.1484 IS DISTORTING EXCESSIVELY.
   ELEMENT FINAL_PART-1.1485 IS DISTORTING EXCESSIVELY.
   ELEMENT FINAL_PART-1.1487 IS DISTORTING EXCESSIVELY.
   ELEMENT FINAL_PART-1.1488 IS DISTORTING EXCESSIVELY.
   ELEMENT FINAL_PART-1.1489 IS DISTORTING EXCESSIVELY.
   ELEMENT FINAL_PART-1.1490 IS DISTORTING EXCESSIVELY.
   ELEMENT FINAL_PART-1.1491 IS DISTORTING EXCESSIVELY.
   ELEMENT FINAL_PART-1.1493 IS DISTORTING EXCESSIVELY.
   ELEMENT FINAL_PART-1.1496 IS DISTORTING EXCESSIVELY.
   ELEMENT FINAL_PART-1.1505 IS DISTORTING EXCESSIVELY.
   ELEMENT FINAL_PART-1.1509 IS DISTORTING EXCESSIVELY.
   ELEMENT FINAL_PART-1.1510 IS DISTORTING EXCESSIVELY.
   ELEMENT FINAL_PART-1.1514 IS DISTORTING EXCESSIVELY.
   ELEMENT FINAL_PART-1.1517 IS DISTORTING EXCESSIVELY.
   ELEMENT FINAL_PART-1.1518 IS DISTORTING EXCESSIVELY.
   ELEMENT FINAL_PART-1.1520 IS DISTORTING EXCESSIVELY.
   ELEMENT FINAL_PART-1.1521 IS DISTORTING EXCESSIVELY.
   ELEMENT FINAL_PART-1.1523 IS DISTORTING EXCESSIVELY.
   ELEMENT FINAL_PART-1.1525 IS DISTORTING EXCESSIVELY.
   ELEMENT FINAL_PART-1.1527 IS DISTORTING EXCESSIVELY.
   ELEMENT FINAL_PART-1.1529 IS DISTORTING EXCESSIVELY.
   ELEMENT FINAL_PART-1.1532 IS DISTORTING EXCESSIVELY.
   ELEMENT FINAL_PART-1.1536 IS DISTORTING EXCESSIVELY.
   ELEMENT FINAL_PART-1.1538 IS DISTORTING EXCESSIVELY.
   ELEMENT FINAL_PART-1.1539 IS DISTORTING EXCESSIVELY.
   ELEMENT FINAL_PART-1.1540 IS DISTORTING EXCESSIVELY.
   ELEMENT FINAL_PART-1.1548 IS DISTORTING EXCESSIVELY.
   ELEMENT FINAL_PART-1.1550 IS DISTORTING EXCESSIVELY.
   ELEMENT FINAL_PART-1.1551 IS DISTORTING EXCESSIVELY.
   ELEMENT FINAL_PART-1.1556 IS DISTORTING EXCESSIVELY.
   ELEMENT FINAL_PART-1.1561 IS DISTORTING EXCESSIVELY.
   ELEMENT FINAL_PART-1.1565 IS DISTORTING EXCESSIVELY.
   ELEMENT FINAL_PART-1.1569 IS DISTORTING EXCESSIVELY.
   ELEMENT FINAL_PART-1.1571 IS DISTORTING EXCESSIVELY.
   ELEMENT FINAL_PART-1.1573 IS DISTORTING EXCESSIVELY.
   ELEMENT FINAL_PART-1.1575 IS DISTORTING EXCESSIVELY.
   ELEMENT FINAL_PART-1.1576 IS DISTORTING EXCESSIVELY.
   ELEMENT FINAL_PART-1.1577 IS DISTORTING EXCESSIVELY.
   ELEMENT FINAL_PART-1.1580 IS DISTORTING EXCESSIVELY.
   ELEMENT FINAL_PART-1.1585 IS DISTORTING EXCESSIVELY.
   ELEMENT FINAL_PART-1.1588 IS DISTORTING EXCESSIVELY.
   ELEMENT FINAL_PART-1.1597 IS DISTORTING EXCESSIVELY.
   ELEMENT FINAL_PART-1.1599 IS DISTORTING EXCESSIVELY.
   ELEMENT FINAL_PART-1.1601 IS DISTORTING EXCESSIVELY.
   ELEMENT FINAL_PART-1.1602 IS DISTORTING EXCESSIVELY.
   ELEMENT FINAL_PART-1.1605 IS DISTORTING EXCESSIVELY.
   ELEMENT FINAL_PART-1.1617 IS DISTORTING EXCESSIVELY.
   ELEMENT FINAL_PART-1.1623 IS DISTORTING EXCESSIVELY.
   ELEMENT FINAL_PART-1.1629 IS DISTORTING EXCESSIVELY.
   ELEMENT FINAL_PART-1.1633 IS DISTORTING EXCESSIVELY.
   ELEMENT FINAL_PART-1.1634 IS DISTORTING EXCESSIVELY.
   ELEMENT FINAL_PART-1.1637 IS DISTORTING EXCESSIVELY.
   ELEMENT FINAL_PART-1.1640 IS DISTORTING EXCESSIVELY.
   ELEMENT FINAL_PART-1.1641 IS DISTORTING EXCESSIVELY.
   ELEMENT FINAL_PART-1.1644 IS DISTORTING EXCESSIVELY.
   ELEMENT FINAL_PART-1.1645 IS DISTORTING EXCESSIVELY.
   ELEMENT FINAL_PART-1.1648 IS DISTORTING EXCESSIVELY.
   ELEMENT FINAL_PART-1.1650 IS DISTORTING EXCESSIVELY.
   ELEMENT FINAL_PART-1.1663 IS DISTORTING EXCESSIVELY.
   ELEMENT FINAL_PART-1.1665 IS DISTORTING EXCESSIVELY.
   ELEMENT FINAL_PART-1.1677 IS DISTORTING EXCESSIVELY.
   ELEMENT FINAL_PART-1.1738 IS DISTORTING EXCESSIVELY.
   ELEMENT FINAL_PART-1.1742 IS DISTORTING EXCESSIVELY.
   ELEMENT FINAL_PART-1.1791 IS DISTORTING EXCESSIVELY.
   ELEMENT FINAL_PART-1.1797 IS DISTORTING EXCESSIVELY.
   ELEMENT FINAL_PART-1.1804 IS DISTORTING EXCESSIVELY.
   ELEMENT FINAL_PART-1.1810 IS DISTORTING EXCESSIVELY.
   ELEMENT FINAL_PART-1.1838 IS DISTORTING EXCESSIVELY.
   ELEMENT FINAL_PART-1.1841 IS DISTORTING EXCESSIVELY.
   ELEMENT FINAL_PART-1.1873 IS DISTORTING EXCESSIVELY.
   ELEMENT FINAL_PART-1.1875 IS DISTORTING EXCESSIVELY.
   ELEMENT FINAL_PART-1.1891 IS DISTORTING EXCESSIVELY.
   ELEMENT FINAL_PART-1.1927 IS DISTORTING EXCESSIVELY.
   ELEMENT FINAL_PART-1.1939 IS DISTORTING EXCESSIVELY.
   ELEMENT FINAL_PART-1.1949 IS DISTORTING EXCESSIVELY.
   ELEMENT FINAL_PART-1.1950 IS DISTORTING EXCESSIVELY.
   ELEMENT FINAL_PART-1.1952 IS DISTORTING EXCESSIVELY.
   ELEMENT FINAL_PART-1.2001 IS DISTORTING EXCESSIVELY.
   ELEMENT FINAL_PART-1.2010 IS DISTORTING EXCESSIVELY.
   ELEMENT FINAL_PART-1.2024 IS DISTORTING EXCESSIVELY.
   ELEMENT FINAL_PART-1.2027 IS DISTORTING EXCESSIVELY.
   ELEMENT FINAL_PART-1.2035 IS DISTORTING EXCESSIVELY.
   ELEMENT FINAL_PART-1.2072 IS DISTORTING EXCESSIVELY.
   ELEMENT FINAL_PART-1.2084 IS DISTORTING EXCESSIVELY.
   ELEMENT FINAL_PART-1.2105 IS DISTORTING EXCESSIVELY.
   ELEMENT FINAL_PART-1.2131 IS DISTORTING EXCESSIVELY.
   ELEMENT FINAL_PART-1.2171 IS DISTORTING EXCESSIVELY.
   ELEMENT FINAL_PART-1.2178 IS DISTORTING EXCESSIVELY.
   ELEMENT FINAL_PART-1.2179 IS DISTORTING EXCESSIVELY.
   ELEMENT FINAL_PART-1.2180 IS DISTORTING EXCESSIVELY.
   ELEMENT FINAL_PART-1.2181 IS DISTORTING EXCESSIVELY.
   ELEMENT FINAL_PART-1.2182 IS DISTORTING EXCESSIVELY.
   ELEMENT FINAL_PART-1.2187 IS DISTORTING EXCESSIVELY.
   ELEMENT FINAL_PART-1.2188 IS DISTORTING EXCESSIVELY.
   ELEMENT FINAL_PART-1.2190 IS DISTORTING EXCESSIVELY.
   ELEMENT FINAL_PART-1.2191 IS DISTORTING EXCESSIVELY.
   ELEMENT FINAL_PART-1.2192 IS DISTORTING EXCESSIVELY.
   ELEMENT FINAL_PART-1.2193 IS DISTORTING EXCESSIVELY.
   ELEMENT FINAL_PART-1.2195 IS DISTORTING EXCESSIVELY.
   ELEMENT FINAL_PART-1.2196 IS DISTORTING EXCESSIVELY.
   ELEMENT FINAL_PART-1.2199 IS DISTORTING EXCESSIVELY.
   ELEMENT FINAL_PART-1.2200 IS DISTORTING EXCESSIVELY.
   ELEMENT FINAL_PART-1.4040 IS DISTORTING EXCESSIVELY.
   ELEMENT FINAL_PART-1.4607 IS DISTORTING EXCESSIVELY.
   ELEMENT FINAL_PART-1.4609 IS DISTORTING EXCESSIVELY.
   ELEMENT FINAL_PART-1.4622 IS DISTORTING EXCESSIVELY.
   ELEMENT FINAL_PART-1.4630 IS DISTORTING EXCESSIVELY.
   ELEMENT FINAL_PART-1.4653 IS DISTORTING EXCESSIVELY.
   ELEMENT FINAL_PART-1.4672 IS DISTORTING EXCESSIVELY.
   ELEMENT FINAL_PART-1.4673 IS DISTORTING EXCESSIVELY.
   ELEMENT FINAL_PART-1.4680 IS DISTORTING EXCESSIVELY.
   ELEMENT FINAL_PART-1.4682 IS DISTORTING EXCESSIVELY.
   ELEMENT FINAL_PART-1.4683 IS DISTORTING EXCESSIVELY.
   ELEMENT FINAL_PART-1.4686 IS DISTORTING EXCESSIVELY.
   ELEMENT FINAL_PART-1.4688 IS DISTORTING EXCESSIVELY.
   ELEMENT FINAL_PART-1.4693 IS DISTORTING EXCESSIVELY.
   ELEMENT FINAL_PART-1.4694 IS DISTORTING EXCESSIVELY.
   ELEMENT FINAL_PART-1.4698 IS DISTORTING EXCESSIVELY.
   ELEMENT FINAL_PART-1.4725 IS DISTORTING EXCESSIVELY.
   ELEMENT FINAL_PART-1.4728 IS DISTORTING EXCESSIVELY.
   ELEMENT FINAL_PART-1.4729 IS DISTORTING EXCESSIVELY.
   ELEMENT FINAL_PART-1.4743 IS DISTORTING EXCESSIVELY.
   ELEMENT FINAL_PART-1.4747 IS DISTORTING EXCESSIVELY.
   ELEMENT FINAL_PART-1.4752 IS DISTORTING EXCESSIVELY.
   ELEMENT FINAL_PART-1.4756 IS DISTORTING EXCESSIVELY.
   ELEMENT FINAL_PART-1.4759 IS DISTORTING EXCESSIVELY.
   ELEMENT FINAL_PART-1.4763 IS DISTORTING EXCESSIVELY.
   ELEMENT FINAL_PART-1.4771 IS DISTORTING EXCESSIVELY.
   ELEMENT FINAL_PART-1.4778 IS DISTORTING EXCESSIVELY.
   ELEMENT FINAL_PART-1.4781 IS DISTORTING EXCESSIVELY.
   ELEMENT FINAL_PART-1.4789 IS DISTORTING EXCESSIVELY.
   ELEMENT FINAL_PART-1.4792 IS DISTORTING EXCESSIVELY.
   ELEMENT FINAL_PART-1.4793 IS DISTORTING EXCESSIVELY.
   ELEMENT FINAL_PART-1.4796 IS DISTORTING EXCESSIVELY.
   ELEMENT FINAL_PART-1.4799 IS DISTORTING EXCESSIVELY.
   ELEMENT FINAL_PART-1.4800 IS DISTORTING EXCESSIVELY.
   ELEMENT FINAL_PART-1.4847 IS DISTORTING EXCESSIVELY.
   ELEMENT FINAL_PART-1.4859 IS DISTORTING EXCESSIVELY.
   ELEMENT FINAL_PART-1.4871 IS DISTORTING EXCESSIVELY.
   ELEMENT FINAL_PART-1.4872 IS DISTORTING EXCESSIVELY.
   ELEMENT FINAL_PART-1.4875 IS DISTORTING EXCESSIVELY.
   ELEMENT FINAL_PART-1.4886 IS DISTORTING EXCESSIVELY.
   ELEMENT FINAL_PART-1.4898 IS DISTORTING EXCESSIVELY.
   ELEMENT FINAL_PART-1.4901 IS DISTORTING EXCESSIVELY.
   ELEMENT FINAL_PART-1.4917 IS DISTORTING EXCESSIVELY.
   ELEMENT FINAL_PART-1.4928 IS DISTORTING EXCESSIVELY.
   ELEMENT FINAL_PART-1.4929 IS DISTORTING EXCESSIVELY.
   ELEMENT FINAL_PART-1.4936 IS DISTORTING EXCESSIVELY.
   ELEMENT FINAL_PART-1.4944 IS DISTORTING EXCESSIVELY.
   ELEMENT FINAL_PART-1.4949 IS DISTORTING EXCESSIVELY.
   ELEMENT FINAL_PART-1.4963 IS DISTORTING EXCESSIVELY.
   ELEMENT FINAL_PART-1.4970 IS DISTORTING EXCESSIVELY.
   ELEMENT FINAL_PART-1.4971 IS DISTORTING EXCESSIVELY.
   ELEMENT FINAL_PART-1.4974 IS DISTORTING EXCESSIVELY.
   ELEMENT FINAL_PART-1.4980 IS DISTORTING EXCESSIVELY.
   ELEMENT FINAL_PART-1.5005 IS DISTORTING EXCESSIVELY.
   ELEMENT FINAL_PART-1.5014 IS DISTORTING EXCESSIVELY.
   ELEMENT FINAL_PART-1.5038 IS DISTORTING EXCESSIVELY.
   ELEMENT FINAL_PART-1.5043 IS DISTORTING EXCESSIVELY.
   ELEMENT FINAL_PART-1.5102 IS DISTORTING EXCESSIVELY.
   ELEMENT FINAL_PART-1.5105 IS DISTORTING EXCESSIVELY.
   ELEMENT FINAL_PART-1.5116 IS DISTORTING EXCESSIVELY.
   ELEMENT FINAL_PART-1.5118 IS DISTORTING EXCESSIVELY.
   ELEMENT FINAL_PART-1.5132 IS DISTORTING EXCESSIVELY.
   ELEMENT FINAL_PART-1.5140 IS DISTORTING EXCESSIVELY.
   ELEMENT FINAL_PART-1.5142 IS DISTORTING EXCESSIVELY.
   ELEMENT FINAL_PART-1.5147 IS DISTORTING EXCESSIVELY.
   ELEMENT FINAL_PART-1.5148 IS DISTORTING EXCESSIVELY.
   ELEMENT FINAL_PART-1.5150 IS DISTORTING EXCESSIVELY.
   ELEMENT FINAL_PART-1.5152 IS DISTORTING EXCESSIVELY.
   ELEMENT FINAL_PART-1.5157 IS DISTORTING EXCESSIVELY.
   ELEMENT FINAL_PART-1.5162 IS DISTORTING EXCESSIVELY.
   ELEMENT FINAL_PART-1.5164 IS DISTORTING EXCESSIVELY.
   ELEMENT FINAL_PART-1.5165 IS DISTORTING EXCESSIVELY.
   ELEMENT FINAL_PART-1.5166 IS DISTORTING EXCESSIVELY.
   ELEMENT FINAL_PART-1.5167 IS DISTORTING EXCESSIVELY.
   ELEMENT FINAL_PART-1.5168 IS DISTORTING EXCESSIVELY.
   ELEMENT FINAL_PART-1.5170 IS DISTORTING EXCESSIVELY.
   ELEMENT FINAL_PART-1.5177 IS DISTORTING EXCESSIVELY.
   ELEMENT FINAL_PART-1.5178 IS DISTORTING EXCESSIVELY.
   ELEMENT FINAL_PART-1.5184 IS DISTORTING EXCESSIVELY.
   ELEMENT FINAL_PART-1.5185 IS DISTORTING EXCESSIVELY.
   ELEMENT FINAL_PART-1.5186 IS DISTORTING EXCESSIVELY.
   ELEMENT FINAL_PART-1.5187 IS DISTORTING EXCESSIVELY.
   ELEMENT FINAL_PART-1.5188 IS DISTORTING EXCESSIVELY.
   ELEMENT FINAL_PART-1.5189 IS DISTORTING EXCESSIVELY.
   ELEMENT FINAL_PART-1.5190 IS DISTORTING EXCESSIVELY.
   ELEMENT FINAL_PART-1.5191 IS DISTORTING EXCESSIVELY.
   ELEMENT FINAL_PART-1.5192 IS DISTORTING EXCESSIVELY.
   ELEMENT FINAL_PART-1.5193 IS DISTORTING EXCESSIVELY.
   ELEMENT FINAL_PART-1.5326 IS DISTORTING EXCESSIVELY.
   ELEMENT FINAL_PART-1.5394 IS DISTORTING EXCESSIVELY.
   ELEMENT FINAL_PART-1.5770 IS DISTORTING EXCESSIVELY.
   ELEMENT FINAL_PART-1.6002 IS DISTORTING EXCESSIVELY.
   ELEMENT FINAL_PART-1.6369 IS DISTORTING EXCESSIVELY.
   ELEMENT FINAL_PART-1.6375 IS DISTORTING EXCESSIVELY.
   ELEMENT FINAL_PART-1.6968 IS DISTORTING EXCESSIVELY.
   ELEMENT FINAL_PART-1.6970 IS DISTORTING EXCESSIVELY.
   ELEMENT FINAL_PART-1.6988 IS DISTORTING EXCESSIVELY.
   ELEMENT FINAL_PART-1.6990 IS DISTORTING EXCESSIVELY.
   ELEMENT FINAL_PART-1.7013 IS DISTORTING EXCESSIVELY.
   ELEMENT FINAL_PART-1.7567 IS DISTORTING EXCESSIVELY.
   ELEMENT FINAL_PART-1.7570 IS DISTORTING EXCESSIVELY.
   ELEMENT FINAL_PART-1.7571 IS DISTORTING EXCESSIVELY.
   ELEMENT FINAL_PART-1.7573 IS DISTORTING EXCESSIVELY.
   ELEMENT FINAL_PART-1.7580 IS DISTORTING EXCESSIVELY.
   ELEMENT FINAL_PART-1.7585 IS DISTORTING EXCESSIVELY.
   ELEMENT FINAL_PART-1.7589 IS DISTORTING EXCESSIVELY.
   ELEMENT FINAL_PART-1.7590 IS DISTORTING EXCESSIVELY.
   ELEMENT FINAL_PART-1.7606 IS DISTORTING EXCESSIVELY.
   ELEMENT FINAL_PART-1.7607 IS DISTORTING EXCESSIVELY.
   ELEMENT FINAL_PART-1.7613 IS DISTORTING EXCESSIVELY.
   ELEMENT FINAL_PART-1.7615 IS DISTORTING EXCESSIVELY.
   ELEMENT FINAL_PART-1.7619 IS DISTORTING EXCESSIVELY.
   ELEMENT FINAL_PART-1.7620 IS DISTORTING EXCESSIVELY.
   ELEMENT FINAL_PART-1.7639 IS DISTORTING EXCESSIVELY.
   ELEMENT FINAL_PART-1.7672 IS DISTORTING EXCESSIVELY.
   ELEMENT FINAL_PART-1.7677 IS DISTORTING EXCESSIVELY.
   ELEMENT FINAL_PART-1.7746 IS DISTORTING EXCESSIVELY.
   ELEMENT FINAL_PART-1.7752 IS DISTORTING EXCESSIVELY.
   ELEMENT FINAL_PART-1.7758 IS DISTORTING EXCESSIVELY.
   ELEMENT FINAL_PART-1.7788 IS DISTORTING EXCESSIVELY.
   ELEMENT FINAL_PART-1.7798 IS DISTORTING EXCESSIVELY.
   ELEMENT FINAL_PART-1.7799 IS DISTORTING EXCESSIVELY.
   ELEMENT FINAL_PART-1.7821 IS DISTORTING EXCESSIVELY.
   ELEMENT FINAL_PART-1.7846 IS DISTORTING EXCESSIVELY.
   ELEMENT FINAL_PART-1.7847 IS DISTORTING EXCESSIVELY.
   ELEMENT FINAL_PART-1.7849 IS DISTORTING EXCESSIVELY.
   ELEMENT FINAL_PART-1.7850 IS DISTORTING EXCESSIVELY.
   ELEMENT FINAL_PART-1.7855 IS DISTORTING EXCESSIVELY.
   ELEMENT FINAL_PART-1.7879 IS DISTORTING EXCESSIVELY.
   ELEMENT FINAL_PART-1.7899 IS DISTORTING EXCESSIVELY.
   ELEMENT FINAL_PART-1.7903 IS DISTORTING EXCESSIVELY.
   ELEMENT FINAL_PART-1.7907 IS DISTORTING EXCESSIVELY.
   ELEMENT FINAL_PART-1.7908 IS DISTORTING EXCESSIVELY.
   ELEMENT FINAL_PART-1.7909 IS DISTORTING EXCESSIVELY.
   ELEMENT FINAL_PART-1.7910 IS DISTORTING EXCESSIVELY.
   ELEMENT FINAL_PART-1.7912 IS DISTORTING EXCESSIVELY.
   ELEMENT FINAL_PART-1.7913 IS DISTORTING EXCESSIVELY.
   ELEMENT FINAL_PART-1.7914 IS DISTORTING EXCESSIVELY.
   ELEMENT FINAL_PART-1.7917 IS DISTORTING EXCESSIVELY.
   ELEMENT FINAL_PART-1.7918 IS DISTORTING EXCESSIVELY.
   ELEMENT FINAL_PART-1.7919 IS DISTORTING EXCESSIVELY.
   ELEMENT FINAL_PART-1.7920 IS DISTORTING EXCESSIVELY.
   ELEMENT FINAL_PART-1.8226 IS DISTORTING EXCESSIVELY.
   ELEMENT FINAL_PART-1.8240 IS DISTORTING EXCESSIVELY.
   ELEMENT FINAL_PART-1.8241 IS DISTORTING EXCESSIVELY.
   ELEMENT FINAL_PART-1.8544 IS DISTORTING EXCESSIVELY.
   ELEMENT FINAL_PART-1.8550 IS DISTORTING EXCESSIVELY.
   ELEMENT FINAL_PART-1.8553 IS DISTORTING EXCESSIVELY.
   ELEMENT FINAL_PART-1.8871 IS DISTORTING EXCESSIVELY.
   ELEMENT FINAL_PART-1.8939 IS DISTORTING EXCESSIVELY.
   ELEMENT FINAL_PART-1.9028 IS DISTORTING EXCESSIVELY.
   ELEMENT FINAL_PART-1.9058 IS DISTORTING EXCESSIVELY.
   ELEMENT FINAL_PART-1.9064 IS DISTORTING EXCESSIVELY.
   ELEMENT FINAL_PART-1.9119 IS DISTORTING EXCESSIVELY.
   ELEMENT FINAL_PART-1.9194 IS DISTORTING EXCESSIVELY.
   ELEMENT FINAL_PART-1.9196 IS DISTORTING EXCESSIVELY.
   ELEMENT FINAL_PART-1.9198 IS DISTORTING EXCESSIVELY.
   ELEMENT FINAL_PART-1.9514 IS DISTORTING EXCESSIVELY.
   ELEMENT FINAL_PART-1.9515 IS DISTORTING EXCESSIVELY.
   ELEMENT FINAL_PART-1.9516 IS DISTORTING EXCESSIVELY.
   ELEMENT FINAL_PART-1.9518 IS DISTORTING EXCESSIVELY.
   ELEMENT FINAL_PART-1.9519 IS DISTORTING EXCESSIVELY.
   ELEMENT FINAL_PART-1.9520 IS DISTORTING EXCESSIVELY.
   ELEMENT FINAL_PART-1.9521 IS DISTORTING EXCESSIVELY.
   ELEMENT FINAL_PART-1.9522 IS DISTORTING EXCESSIVELY.
   ELEMENT FINAL_PART-1.9523 IS DISTORTING EXCESSIVELY.
   ELEMENT FINAL_PART-1.9524 IS DISTORTING EXCESSIVELY.
   ELEMENT FINAL_PART-1.9525 IS DISTORTING EXCESSIVELY.
   ELEMENT FINAL_PART-1.9528 IS DISTORTING EXCESSIVELY.
   ELEMENT FINAL_PART-1.9529 IS DISTORTING EXCESSIVELY.
   ELEMENT FINAL_PART-1.9530 IS DISTORTING EXCESSIVELY.
   ELEMENT FINAL_PART-1.9531 IS DISTORTING EXCESSIVELY.
   ELEMENT FINAL_PART-1.9532 IS DISTORTING EXCESSIVELY.
   ELEMENT FINAL_PART-1.9533 IS DISTORTING EXCESSIVELY.
   ELEMENT FINAL_PART-1.9534 IS DISTORTING EXCESSIVELY.
   ELEMENT FINAL_PART-1.9851 IS DISTORTING EXCESSIVELY.
   ELEMENT FINAL_PART-1.9856 IS DISTORTING EXCESSIVELY.
   ELEMENT FINAL_PART-1.9857 IS DISTORTING EXCESSIVELY.
   ELEMENT FINAL_PART-1.9858 IS DISTORTING EXCESSIVELY.
   ELEMENT FINAL_PART-1.10180 IS DISTORTING EXCESSIVELY.
   ELEMENT FINAL_PART-1.10825 IS DISTORTING EXCESSIVELY.
   ELEMENT FINAL_PART-1.10835 IS DISTORTING EXCESSIVELY.
   ELEMENT FINAL_PART-1.10836 IS DISTORTING EXCESSIVELY.
   ELEMENT FINAL_PART-1.10837 IS DISTORTING EXCESSIVELY.
   ELEMENT FINAL_PART-1.10889 IS DISTORTING EXCESSIVELY.
   ELEMENT FINAL_PART-1.10911 IS DISTORTING EXCESSIVELY.
   ELEMENT FINAL_PART-1.10924 IS DISTORTING EXCESSIVELY.
   ELEMENT FINAL_PART-1.10996 IS DISTORTING EXCESSIVELY.
   ELEMENT FINAL_PART-1.11075 IS DISTORTING EXCESSIVELY.
   ELEMENT FINAL_PART-1.11077 IS DISTORTING EXCESSIVELY.
   ELEMENT FINAL_PART-1.11131 IS DISTORTING EXCESSIVELY.
   ELEMENT FINAL_PART-1.11137 IS DISTORTING EXCESSIVELY.
   ELEMENT FINAL_PART-1.11183 IS DISTORTING EXCESSIVELY.
   ELEMENT FINAL_PART-1.11185 IS DISTORTING EXCESSIVELY.
   ELEMENT FINAL_PART-1.11189 IS DISTORTING EXCESSIVELY.
   ELEMENT FINAL_PART-1.11200 IS DISTORTING EXCESSIVELY.
   ELEMENT FINAL_PART-1.11271 IS DISTORTING EXCESSIVELY.
   ELEMENT FINAL_PART-1.11276 IS DISTORTING EXCESSIVELY.
   ELEMENT FINAL_PART-1.11432 IS DISTORTING EXCESSIVELY.
   ELEMENT FINAL_PART-1.11447 IS DISTORTING EXCESSIVELY.
   ELEMENT FINAL_PART-1.11453 IS DISTORTING EXCESSIVELY.
   ELEMENT FINAL_PART-1.11476 IS DISTORTING EXCESSIVELY.
   ELEMENT FINAL_PART-1.11487 IS DISTORTING EXCESSIVELY.
   ELEMENT FINAL_PART-1.11490 IS DISTORTING EXCESSIVELY.
   ELEMENT FINAL_PART-1.11492 IS DISTORTING EXCESSIVELY.
   ELEMENT FINAL_PART-1.11543 IS DISTORTING EXCESSIVELY.
   ELEMENT FINAL_PART-1.11573 IS DISTORTING EXCESSIVELY.
   ELEMENT FINAL_PART-1.11623 IS DISTORTING EXCESSIVELY.
   ELEMENT FINAL_PART-1.11624 IS DISTORTING EXCESSIVELY.
   ELEMENT FINAL_PART-1.11625 IS DISTORTING EXCESSIVELY.
   ELEMENT FINAL_PART-1.11628 IS DISTORTING EXCESSIVELY.
   ELEMENT FINAL_PART-1.11629 IS DISTORTING EXCESSIVELY.
   ELEMENT FINAL_PART-1.11631 IS DISTORTING EXCESSIVELY.
   ELEMENT FINAL_PART-1.11632 IS DISTORTING EXCESSIVELY.
   ELEMENT FINAL_PART-1.11633 IS DISTORTING EXCESSIVELY.
   ELEMENT FINAL_PART-1.11634 IS DISTORTING EXCESSIVELY.
   ELEMENT FINAL_PART-1.11635 IS DISTORTING EXCESSIVELY.
   ELEMENT FINAL_PART-1.11637 IS DISTORTING EXCESSIVELY.
   ELEMENT FINAL_PART-1.11638 IS DISTORTING EXCESSIVELY.
   ELEMENT FINAL_PART-1.11642 IS DISTORTING EXCESSIVELY.
   ELEMENT FINAL_PART-1.11643 IS DISTORTING EXCESSIVELY.
   ELEMENT FINAL_PART-1.11646 IS DISTORTING EXCESSIVELY.
   ELEMENT FINAL_PART-1.11647 IS DISTORTING EXCESSIVELY.
   ELEMENT FINAL_PART-1.11648 IS DISTORTING EXCESSIVELY.
   ELEMENT FINAL_PART-1.11649 IS DISTORTING EXCESSIVELY.
   ELEMENT FINAL_PART-1.11650 IS DISTORTING EXCESSIVELY.
   ELEMENT FINAL_PART-1.11651 IS DISTORTING EXCESSIVELY.
   ELEMENT FINAL_PART-1.11653 IS DISTORTING EXCESSIVELY.
   ELEMENT FINAL_PART-1.11654 IS DISTORTING EXCESSIVELY.
   ELEMENT FINAL_PART-1.11655 IS DISTORTING EXCESSIVELY.
   ELEMENT FINAL_PART-1.11656 IS DISTORTING EXCESSIVELY.
   ELEMENT FINAL_PART-1.11657 IS DISTORTING EXCESSIVELY.
   ELEMENT FINAL_PART-1.11658 IS DISTORTING EXCESSIVELY.
   ELEMENT FINAL_PART-1.11659 IS DISTORTING EXCESSIVELY.
   ELEMENT FINAL_PART-1.11660 IS DISTORTING EXCESSIVELY.
   ELEMENT FINAL_PART-1.11661 IS DISTORTING EXCESSIVELY.
   ELEMENT FINAL_PART-1.11662 IS DISTORTING EXCESSIVELY.
   ELEMENT FINAL_PART-1.11663 IS DISTORTING EXCESSIVELY.
   ELEMENT FINAL_PART-1.11664 IS DISTORTING EXCESSIVELY.
   ELEMENT FINAL_PART-1.12469 IS DISTORTING EXCESSIVELY.
   ELEMENT FINAL_PART-1.12496 IS DISTORTING EXCESSIVELY.
   ELEMENT FINAL_PART-1.14169 IS DISTORTING EXCESSIVELY.
   ELEMENT FINAL_PART-1.15040 IS DISTORTING EXCESSIVELY.
   ELEMENT FINAL_PART-1.15064 IS DISTORTING EXCESSIVELY.
   ELEMENT FINAL_PART-1.15093 IS DISTORTING EXCESSIVELY.
   ELEMENT FINAL_PART-1.15117 IS DISTORTING EXCESSIVELY.
   ELEMENT FINAL_PART-1.15138 IS DISTORTING EXCESSIVELY.
   ELEMENT FINAL_PART-1.15160 IS DISTORTING EXCESSIVELY.
   ELEMENT FINAL_PART-1.15184 IS DISTORTING EXCESSIVELY.
   ELEMENT FINAL_PART-1.15185 IS DISTORTING EXCESSIVELY.
[...]
          FORCE     EQUILIBRIUM NOT ACHIEVED WITHIN TOLERANCE.
 
	SYMMETRIC PURE THREAD-BASED DIRECT SPARSE SOLVER RUNNING ON
 	1 HOST x 1 MPI RANK PER HOST x 1 THREAD PER RANK
        NUMBER OF EQUATIONS:  494706
        NUMBER OF RHS:        1
        NUMBER OF FLOPS:      1.131e+11
        SOLVER ELAPSED TIME:  7.2s
 

 ***WARNING: THE SYSTEM MATRIX HAS 1 NEGATIVE EIGENVALUES.
             EXPLANATIONS ARE SUGGESTED AFTER THE FIRST OCCURRENCE OF THIS MESSAGE.

               CONVERGENCE CHECKS FOR EQUILIBRIUM ITERATION     5


 AVERAGE FORCE                      5.182E-02   TIME AVG. FORCE       1.024E-02
 LARGEST SCALED RESIDUAL FORCE      0.710       AT NODE      14145   DOF  2
   INSTANCE: FINAL_PART-1                                                                    
  CORRESPONDING RESIDUAL FORCE      0.710    
 LARGEST INCREMENT OF DISP.         2.468E-03   AT NODE         43   DOF  2
   INSTANCE: FINAL_PART-1                                                                    
 LARGEST CORRECTION TO DISP.        1.053E-03   AT NODE         43   DOF  2
   INSTANCE: FINAL_PART-1                                                                    
          FORCE     EQUILIBRIUM NOT ACHIEVED WITHIN TOLERANCE.
 

 ***NOTE: THE SOLUTION APPEARS TO BE DIVERGING. CONVERGENCE IS JUDGED UNLIKELY.


  INCREMENT    21 STARTS. ATTEMPT NUMBER  2, TIME INCREMENT  7.332E-05
 
	SYMMETRIC PURE THREAD-BASED DIRECT SPARSE SOLVER RUNNING ON
 	1 HOST x 1 MPI RANK PER HOST x 1 THREAD PER RANK
        NUMBER OF EQUATIONS:  494706
        NUMBER OF RHS:        1
        NUMBER OF FLOPS:      1.131e+11
        SOLVER ELAPSED TIME:  7.2s
 

 ***WARNING: THE SYSTEM MATRIX HAS 1 NEGATIVE EIGENVALUES.
             EXPLANATIONS ARE SUGGESTED AFTER THE FIRST OCCURRENCE OF THIS MESSAGE.

               CONVERGENCE CHECKS FOR EQUILIBRIUM ITERATION     1


 AVERAGE FORCE                      1.390E-02   TIME AVG. FORCE       8.439E-03
 LARGEST SCALED RESIDUAL FORCE      8.820E-02   AT NODE      14145   DOF  2
   INSTANCE: FINAL_PART-1                                                                    
  CORRESPONDING RESIDUAL FORCE      8.820E-02
 LARGEST INCREMENT OF DISP.         3.342E-04   AT NODE         43   DOF  2
   INSTANCE: FINAL_PART-1                                                                    
 LARGEST CORRECTION TO DISP.        3.769E-04   AT NODE         43   DOF  2
   INSTANCE: FINAL_PART-1                                                                    
          FORCE     EQUILIBRIUM NOT ACHIEVED WITHIN TOLERANCE.
 
	SYMMETRIC PURE THREAD-BASED DIRECT SPARSE SOLVER RUNNING ON
 	1 HOST x 1 MPI RANK PER HOST x 1 THREAD PER RANK
        NUMBER OF EQUATIONS:  494706
        NUMBER OF RHS:        1
        NUMBER OF FLOPS:      1.131e+11
        SOLVER ELAPSED TIME:  7.1s

               CONVERGENCE CHECKS FOR EQUILIBRIUM ITERATION     2


 AVERAGE FORCE                      1.040E-02   TIME AVG. FORCE       8.272E-03
 LARGEST SCALED RESIDUAL FORCE      1.191E-04   AT NODE       4469   DOF  3
   INSTANCE: FINAL_PART-1                                                                    
  CORRESPONDING RESIDUAL FORCE      1.191E-04
 LARGEST INCREMENT OF DISP.         3.318E-04   AT NODE         43   DOF  2
   INSTANCE: FINAL_PART-1                                                                    
 LARGEST CORRECTION TO DISP.       -2.525E-06   AT NODE        229   DOF  2
   INSTANCE: FINAL_PART-1                                                                    
          FORCE     EQUILIBRIUM NOT ACHIEVED WITHIN TOLERANCE.
 
	SYMMETRIC PURE THREAD-BASED DIRECT SPARSE SOLVER RUNNING ON
 	1 HOST x 1 MPI RANK PER HOST x 1 THREAD PER RANK
        NUMBER OF EQUATIONS:  494706
        NUMBER OF RHS:        1
        NUMBER OF FLOPS:      1.131e+11
        SOLVER ELAPSED TIME:  7.2s
 

 ***WARNING: THE SYSTEM MATRIX HAS 1 NEGATIVE EIGENVALUES.
             EXPLANATIONS ARE SUGGESTED AFTER THE FIRST OCCURRENCE OF THIS MESSAGE.

               CONVERGENCE CHECKS FOR EQUILIBRIUM ITERATION     3


 AVERAGE FORCE                      1.582E-02   TIME AVG. FORCE       8.530E-03
 LARGEST SCALED RESIDUAL FORCE      0.125       AT NODE      14145   DOF  2
   INSTANCE: FINAL_PART-1                                                                    
  CORRESPONDING RESIDUAL FORCE      0.125    
 LARGEST INCREMENT OF DISP.         7.790E-04   AT NODE         43   DOF  2
   INSTANCE: FINAL_PART-1                                                                    
 LARGEST CORRECTION TO DISP.        4.472E-04   AT NODE         43   DOF  2
   INSTANCE: FINAL_PART-1                                                                    
          FORCE     EQUILIBRIUM NOT ACHIEVED WITHIN TOLERANCE.
 
	SYMMETRIC PURE THREAD-BASED DIRECT SPARSE SOLVER RUNNING ON
 	1 HOST x 1 MPI RANK PER HOST x 1 THREAD PER RANK
        NUMBER OF EQUATIONS:  494706
        NUMBER OF RHS:        1
        NUMBER OF FLOPS:      1.131e+11
        SOLVER ELAPSED TIME:  6.8s

               CONVERGENCE CHECKS FOR EQUILIBRIUM ITERATION     4


 AVERAGE FORCE                      1.034E-02   TIME AVG. FORCE       8.269E-03
 LARGEST SCALED RESIDUAL FORCE     -1.620E-04   AT NODE       4844   DOF  3
   INSTANCE: FINAL_PART-1                                                                    
  CORRESPONDING RESIDUAL FORCE     -1.620E-04
 LARGEST INCREMENT OF DISP.         7.758E-04   AT NODE         43   DOF  2
   INSTANCE: FINAL_PART-1                                                                    
 LARGEST CORRECTION TO DISP.       -3.476E-06   AT NODE        236   DOF  2
   INSTANCE: FINAL_PART-1                                                                    
          FORCE     EQUILIBRIUM NOT ACHIEVED WITHIN TOLERANCE.
 
	SYMMETRIC PURE THREAD-BASED DIRECT SPARSE SOLVER RUNNING ON
 	1 HOST x 1 MPI RANK PER HOST x 1 THREAD PER RANK
        NUMBER OF EQUATIONS:  494706
        NUMBER OF RHS:        1
        NUMBER OF FLOPS:      1.131e+11
        SOLVER ELAPSED TIME:  7.0s
 

 ***WARNING: THE SYSTEM MATRIX HAS 1 NEGATIVE EIGENVALUES.
             EXPLANATIONS ARE SUGGESTED AFTER THE FIRST OCCURRENCE OF THIS MESSAGE.

               CONVERGENCE CHECKS FOR EQUILIBRIUM ITERATION     5


 AVERAGE FORCE                      4.746E-02   TIME AVG. FORCE       1.004E-02
 LARGEST SCALED RESIDUAL FORCE      0.661       AT NODE      14145   DOF  2
   INSTANCE: FINAL_PART-1                                                                    
  CORRESPONDING RESIDUAL FORCE      0.661    
 LARGEST INCREMENT OF DISP.         1.801E-03   AT NODE         43   DOF  2
   INSTANCE: FINAL_PART-1                                                                    
 LARGEST CORRECTION TO DISP.        1.025E-03   AT NODE         43   DOF  2
   INSTANCE: FINAL_PART-1                                                                    
          FORCE     EQUILIBRIUM NOT ACHIEVED WITHIN TOLERANCE.
 

 ***NOTE: THE SOLUTION APPEARS TO BE DIVERGING. CONVERGENCE IS JUDGED UNLIKELY.


  INCREMENT    21 STARTS. ATTEMPT NUMBER  3, TIME INCREMENT  1.833E-05
 
	SYMMETRIC PURE THREAD-BASED DIRECT SPARSE SOLVER RUNNING ON
 	1 HOST x 1 MPI RANK PER HOST x 1 THREAD PER RANK
        NUMBER OF EQUATIONS:  494706
        NUMBER OF RHS:        1
        NUMBER OF FLOPS:      1.131e+11
        SOLVER ELAPSED TIME:  7.0s
 

 ***WARNING: THE SYSTEM MATRIX HAS 1 NEGATIVE EIGENVALUES.
             EXPLANATIONS ARE SUGGESTED AFTER THE FIRST OCCURRENCE OF THIS MESSAGE.

               CONVERGENCE CHECKS FOR EQUILIBRIUM ITERATION     1


 AVERAGE FORCE                      1.196E-02   TIME AVG. FORCE       8.347E-03
 LARGEST SCALED RESIDUAL FORCE      4.690E-02   AT NODE      14145   DOF  2
   INSTANCE: FINAL_PART-1                                                                    
  CORRESPONDING RESIDUAL FORCE      4.690E-02
 LARGEST INCREMENT OF DISP.         2.747E-04   AT NODE         43   DOF  2
   INSTANCE: FINAL_PART-1                                                                    
 LARGEST CORRECTION TO DISP.        2.747E-04   AT NODE         43   DOF  2
   INSTANCE: FINAL_PART-1                                                                    
          FORCE     EQUILIBRIUM NOT ACHIEVED WITHIN TOLERANCE.
 
	SYMMETRIC PURE THREAD-BASED DIRECT SPARSE SOLVER RUNNING ON
 	1 HOST x 1 MPI RANK PER HOST x 1 THREAD PER RANK
        NUMBER OF EQUATIONS:  494706
        NUMBER OF RHS:        1
        NUMBER OF FLOPS:      1.131e+11
        SOLVER ELAPSED TIME:  7.3s

               CONVERGENCE CHECKS FOR EQUILIBRIUM ITERATION     2


 AVERAGE FORCE                      1.041E-02   TIME AVG. FORCE       8.273E-03
 LARGEST SCALED RESIDUAL FORCE      7.113E-05   AT NODE       4469   DOF  3
   INSTANCE: FINAL_PART-1                                                                    
  CORRESPONDING RESIDUAL FORCE      7.113E-05
 LARGEST INCREMENT OF DISP.         2.732E-04   AT NODE         43   DOF  2
   INSTANCE: FINAL_PART-1                                                                    
 LARGEST CORRECTION TO DISP.       -1.587E-06   AT NODE        229   DOF  2
   INSTANCE: FINAL_PART-1                                                                    
          FORCE     EQUILIBRIUM NOT ACHIEVED WITHIN TOLERANCE.
 
	SYMMETRIC PURE THREAD-BASED DIRECT SPARSE SOLVER RUNNING ON
 	1 HOST x 1 MPI RANK PER HOST x 1 THREAD PER RANK
        NUMBER OF EQUATIONS:  494706
        NUMBER OF RHS:        1
        NUMBER OF FLOPS:      1.131e+11
        SOLVER ELAPSED TIME:  7.2s
 

 ***WARNING: THE SYSTEM MATRIX HAS 1 NEGATIVE EIGENVALUES.
             EXPLANATIONS ARE SUGGESTED AFTER THE FIRST OCCURRENCE OF THIS MESSAGE.

               CONVERGENCE CHECKS FOR EQUILIBRIUM ITERATION     3


 AVERAGE FORCE                      1.243E-02   TIME AVG. FORCE       8.369E-03
 LARGEST SCALED RESIDUAL FORCE      5.739E-02   AT NODE      14145   DOF  2
   INSTANCE: FINAL_PART-1                                                                    
  CORRESPONDING RESIDUAL FORCE      5.739E-02
 LARGEST INCREMENT OF DISP.         5.760E-04   AT NODE         43   DOF  2
   INSTANCE: FINAL_PART-1                                                                    
 LARGEST CORRECTION TO DISP.        3.029E-04   AT NODE         43   DOF  2
   INSTANCE: FINAL_PART-1                                                                    
          FORCE     EQUILIBRIUM NOT ACHIEVED WITHIN TOLERANCE.
 
	SYMMETRIC PURE THREAD-BASED DIRECT SPARSE SOLVER RUNNING ON
 	1 HOST x 1 MPI RANK PER HOST x 1 THREAD PER RANK
        NUMBER OF EQUATIONS:  494706
        NUMBER OF RHS:        1
        NUMBER OF FLOPS:      1.131e+11
        SOLVER ELAPSED TIME:  7.0s

               CONVERGENCE CHECKS FOR EQUILIBRIUM ITERATION     4


 AVERAGE FORCE                      1.037E-02   TIME AVG. FORCE       8.271E-03
 LARGEST SCALED RESIDUAL FORCE      8.209E-05   AT NODE       4469   DOF  3
   INSTANCE: FINAL_PART-1                                                                    
  CORRESPONDING RESIDUAL FORCE      8.209E-05
 LARGEST INCREMENT OF DISP.         5.743E-04   AT NODE         43   DOF  2
   INSTANCE: FINAL_PART-1                                                                    
 LARGEST CORRECTION TO DISP.       -1.849E-06   AT NODE        229   DOF  2
   INSTANCE: FINAL_PART-1                                                                    
          FORCE     EQUILIBRIUM NOT ACHIEVED WITHIN TOLERANCE.
 
	SYMMETRIC PURE THREAD-BASED DIRECT SPARSE SOLVER RUNNING ON
 	1 HOST x 1 MPI RANK PER HOST x 1 THREAD PER RANK
        NUMBER OF EQUATIONS:  494706
        NUMBER OF RHS:        1
        NUMBER OF FLOPS:      1.131e+11
        SOLVER ELAPSED TIME:  7.1s
 

 ***WARNING: THE SYSTEM MATRIX HAS 1 NEGATIVE EIGENVALUES.
             EXPLANATIONS ARE SUGGESTED AFTER THE FIRST OCCURRENCE OF THIS MESSAGE.

               CONVERGENCE CHECKS FOR EQUILIBRIUM ITERATION     5


 AVERAGE FORCE                      1.828E-02   TIME AVG. FORCE       8.648E-03
 LARGEST SCALED RESIDUAL FORCE      0.170       AT NODE      14145   DOF  2
   INSTANCE: FINAL_PART-1                                                                    
  CORRESPONDING RESIDUAL FORCE      0.170    
 LARGEST INCREMENT OF DISP.         1.094E-03   AT NODE         43   DOF  2
   INSTANCE: FINAL_PART-1                                                                    
 LARGEST CORRECTION TO DISP.        5.198E-04   AT NODE         43   DOF  2
   INSTANCE: FINAL_PART-1                                                                    
          FORCE     EQUILIBRIUM NOT ACHIEVED WITHIN TOLERANCE.
 

 ***NOTE: THE SOLUTION APPEARS TO BE DIVERGING. CONVERGENCE IS JUDGED UNLIKELY.


  INCREMENT    21 STARTS. ATTEMPT NUMBER  4, TIME INCREMENT  1.000E-05
 
	SYMMETRIC PURE THREAD-BASED DIRECT SPARSE SOLVER RUNNING ON
 	1 HOST x 1 MPI RANK PER HOST x 1 THREAD PER RANK
        NUMBER OF EQUATIONS:  494706
        NUMBER OF RHS:        1
        NUMBER OF FLOPS:      1.131e+11
        SOLVER ELAPSED TIME:  7.0s
 

 ***WARNING: THE SYSTEM MATRIX HAS 1 NEGATIVE EIGENVALUES.
             EXPLANATIONS ARE SUGGESTED AFTER THE FIRST OCCURRENCE OF THIS MESSAGE.

               CONVERGENCE CHECKS FOR EQUILIBRIUM ITERATION     1


 AVERAGE FORCE                      1.175E-02   TIME AVG. FORCE       8.336E-03
 LARGEST SCALED RESIDUAL FORCE      4.202E-02   AT NODE      14145   DOF  2
   INSTANCE: FINAL_PART-1                                                                    
  CORRESPONDING RESIDUAL FORCE      4.202E-02
 LARGEST INCREMENT OF DISP.         2.600E-04   AT NODE         43   DOF  2
   INSTANCE: FINAL_PART-1                                                                    
 LARGEST CORRECTION TO DISP.        2.600E-04   AT NODE         43   DOF  2
   INSTANCE: FINAL_PART-1                                                                    
          FORCE     EQUILIBRIUM NOT ACHIEVED WITHIN TOLERANCE.
 
	SYMMETRIC PURE THREAD-BASED DIRECT SPARSE SOLVER RUNNING ON
 	1 HOST x 1 MPI RANK PER HOST x 1 THREAD PER RANK
        NUMBER OF EQUATIONS:  494706
        NUMBER OF RHS:        1
        NUMBER OF FLOPS:      1.131e+11
        SOLVER ELAPSED TIME:  7.0s

               CONVERGENCE CHECKS FOR EQUILIBRIUM ITERATION     2


 AVERAGE FORCE                      1.041E-02   TIME AVG. FORCE       8.273E-03
 LARGEST SCALED RESIDUAL FORCE      6.532E-05   AT NODE       4469   DOF  3
   INSTANCE: FINAL_PART-1                                                                    
  CORRESPONDING RESIDUAL FORCE      6.532E-05
 LARGEST INCREMENT OF DISP.         2.586E-04   AT NODE         43   DOF  2
   INSTANCE: FINAL_PART-1                                                                    
 LARGEST CORRECTION TO DISP.       -1.483E-06   AT NODE        229   DOF  2
   INSTANCE: FINAL_PART-1                                                                    
          FORCE     EQUILIBRIUM NOT ACHIEVED WITHIN TOLERANCE.
 
	SYMMETRIC PURE THREAD-BASED DIRECT SPARSE SOLVER RUNNING ON
 	1 HOST x 1 MPI RANK PER HOST x 1 THREAD PER RANK
        NUMBER OF EQUATIONS:  494706
        NUMBER OF RHS:        1
        NUMBER OF FLOPS:      1.131e+11
        SOLVER ELAPSED TIME:  7.6s
 

 ***WARNING: THE SYSTEM MATRIX HAS 1 NEGATIVE EIGENVALUES.
             EXPLANATIONS ARE SUGGESTED AFTER THE FIRST OCCURRENCE OF THIS MESSAGE.

               CONVERGENCE CHECKS FOR EQUILIBRIUM ITERATION     3


 AVERAGE FORCE                      1.205E-02   TIME AVG. FORCE       8.351E-03
 LARGEST SCALED RESIDUAL FORCE      4.922E-02   AT NODE      14145   DOF  2
   INSTANCE: FINAL_PART-1                                                                    
  CORRESPONDING RESIDUAL FORCE      4.922E-02
 LARGEST INCREMENT OF DISP.         5.391E-04   AT NODE         43   DOF  2
   INSTANCE: FINAL_PART-1                                                                    
 LARGEST CORRECTION TO DISP.        2.805E-04   AT NODE         43   DOF  2
   INSTANCE: FINAL_PART-1                                                                    
          FORCE     EQUILIBRIUM NOT ACHIEVED WITHIN TOLERANCE.
 
	SYMMETRIC PURE THREAD-BASED DIRECT SPARSE SOLVER RUNNING ON
 	1 HOST x 1 MPI RANK PER HOST x 1 THREAD PER RANK
        NUMBER OF EQUATIONS:  494706
        NUMBER OF RHS:        1
        NUMBER OF FLOPS:      1.131e+11
        SOLVER ELAPSED TIME:  6.9s

               CONVERGENCE CHECKS FOR EQUILIBRIUM ITERATION     4


 AVERAGE FORCE                      1.037E-02   TIME AVG. FORCE       8.271E-03
 LARGEST SCALED RESIDUAL FORCE      7.244E-05   AT NODE       4469   DOF  3
   INSTANCE: FINAL_PART-1                                                                    
  CORRESPONDING RESIDUAL FORCE      7.244E-05
 LARGEST INCREMENT OF DISP.         5.375E-04   AT NODE         43   DOF  2
   INSTANCE: FINAL_PART-1                                                                    
 LARGEST CORRECTION TO DISP.       -1.663E-06   AT NODE        229   DOF  2
   INSTANCE: FINAL_PART-1                                                                    
          FORCE     EQUILIBRIUM NOT ACHIEVED WITHIN TOLERANCE.
 
	SYMMETRIC PURE THREAD-BASED DIRECT SPARSE SOLVER RUNNING ON
 	1 HOST x 1 MPI RANK PER HOST x 1 THREAD PER RANK
        NUMBER OF EQUATIONS:  494706
        NUMBER OF RHS:        1
        NUMBER OF FLOPS:      1.131e+11
        SOLVER ELAPSED TIME:  7.3s
 

 ***WARNING: THE SYSTEM MATRIX HAS 1 NEGATIVE EIGENVALUES.
             EXPLANATIONS ARE SUGGESTED AFTER THE FIRST OCCURRENCE OF THIS MESSAGE.

               CONVERGENCE CHECKS FOR EQUILIBRIUM ITERATION     5


 AVERAGE FORCE                      1.604E-02   TIME AVG. FORCE       8.541E-03
 LARGEST SCALED RESIDUAL FORCE      0.129       AT NODE      14145   DOF  2
   INSTANCE: FINAL_PART-1                                                                    
  CORRESPONDING RESIDUAL FORCE      0.129    
 LARGEST INCREMENT OF DISP.         9.899E-04   AT NODE         43   DOF  2
   INSTANCE: FINAL_PART-1                                                                    
 LARGEST CORRECTION TO DISP.        4.524E-04   AT NODE         43   DOF  2
   INSTANCE: FINAL_PART-1                                                                    
          FORCE     EQUILIBRIUM NOT ACHIEVED WITHIN TOLERANCE.
 

 ***NOTE: THE SOLUTION APPEARS TO BE DIVERGING. CONVERGENCE IS JUDGED UNLIKELY.
 

 ***ERROR: TIME INCREMENT REQUIRED IS LESS THAN THE MINIMUM SPECIFIED

 ***ERROR: THE ANALYSIS HAS BEEN TERMINATED DUE TO PREVIOUS ERRORS. ALL OUTPUT 
           REQUESTS HAVE BEEN WRITTEN FOR THE LAST CONVERGED INCREMENT.



     ANALYSIS SUMMARY:
     TOTAL OF         21  INCREMENTS
                      13  CUTBACKS IN AUTOMATIC INCREMENTATION
                     150  ITERATIONS INCLUDING CONTACT ITERATIONS IF PRESENT
                     150  PASSES THROUGH THE EQUATION SOLVER OF WHICH 
                     150  INVOLVE MATRIX DECOMPOSITION, INCLUDING
                       0  DECOMPOSITION(S) OF THE MASS MATRIX
                       1  REORDERING OF EQUATIONS TO MINIMIZE WAVEFRONT
                       0  ADDITIONAL RESIDUAL EVALUATIONS FOR LINE SEARCHES
                       0  ADDITIONAL OPERATOR EVALUATIONS FOR LINE SEARCHES
                       1  WARNING MESSAGES DURING USER INPUT PROCESSING
                      36  WARNING MESSAGES DURING ANALYSIS
                       0  ANALYSIS WARNINGS ARE NUMERICAL PROBLEM MESSAGES
                      33  ANALYSIS WARNINGS ARE NEGATIVE EIGENVALUE MESSAGES
                       2  ERROR MESSAGES



     JOB TIME SUMMARY
       USER TIME (SEC)      =     4.59E+03
       SYSTEM TIME (SEC)    =     5.00E+02
       TOTAL CPU TIME (SEC) =     5.09E+03
       WALLCLOCK TIME (SEC) =         2071
       MEMORY PEAK (GB)     =            0
