 Abaqus/Standard 2025                  DATE 24-Feb-2026 TIME 13:06:51
 SUMMARY OF JOB INFORMATION:
 STEP  INC ATT SEVERE EQUIL TOTAL  TOTAL      STEP       INC OF       DOF    IF
               DISCON ITERS ITERS  TIME/    TIME/LPF    TIME/LPF    MONITOR RIKS
               ITERS               FREQ
   1     1   1U    0     2     2  0.00       0.00       1.000     
   1     1   2U    0     4     4  0.00       0.00       0.2500    
   1     1   3     0     7     7  0.0625     0.0625     0.06250   
   1     2   1     0     7     7  0.125      0.125      0.06250   
   1     3   1     0     5     5  0.188      0.188      0.06250   
   1     4   1     0     5     5  0.250      0.250      0.06250   
   1     5   1     0     6     6  0.312      0.312      0.06250   
   1     6   1     0     9     9  0.375      0.375      0.06250   
   1     7   1U    0     4     4  0.375      0.375      0.06250   
   1     7   2U    0     5     5  0.375      0.375      0.01562   
   1     7   3     0     4     4  0.379      0.379      0.003906  
   1     8   1     0     2     2  0.383      0.383      0.003906  
   1     9   1     0     4     4  0.389      0.389      0.005859  
   1    10   1     0     6     6  0.397      0.397      0.008789  
   1    11   1U    0     6     6  0.397      0.397      0.008789  
   1    11   2     0     2     2  0.400      0.400      0.002197  
   1    12   1     0     2     2  0.402      0.402      0.002197  
   1    13   1U    0     5     5  0.402      0.402      0.003296  
   1    13   2     0     2     2  0.403      0.403      0.0008240 
   1    14   1     0     2     2  0.404      0.404      0.001236  
   1    15   1U    0     9     9  0.404      0.404      0.001854  
   1    15   2     0     2     2  0.405      0.405      0.0009270 
   1    16   1U    0     5     5  0.405      0.405      0.001390  
   1    16   2     0     3     3  0.405      0.405      0.0003476 
   1    17   1     0     2     2  0.406      0.406      0.0005214 
   1    18   1U    0     6     6  0.406      0.406      0.0007821 
   1    18   2     0     4     4  0.406      0.406      0.0001955 
   1    19   1     0     6     6  0.406      0.406      0.0002933 
   1    20   1     0     4     4  0.406      0.406      0.0002933 
   1    21   1U    0     5     5  0.406      0.406      0.0002933 
   1    21   2U    0     5     5  0.406      0.406      7.332e-05 
   1    21   3U    0     5     5  0.406      0.406      1.833e-05 
   1    21   4U    0     5     5  0.406      0.406      1.000e-05 
                          
 THE ANALYSIS HAS NOT BEEN COMPLETED
