1

   Abaqus 2025                                  Date 24-Feb-2026   Time 12:40:06
   For use by UNIVERSITAET STUTTGART under license from Dassault Systemes or its subsidiary.

                                                                                 
                                                                                 
 STEP    1     INCREMENT     1     STEP TIME    0.00    


                        S T E P       1     S T A T I C   A N A L Y S I S


                                                                                          

     AUTOMATIC TIME CONTROL WITH -
          A SUGGESTED INITIAL TIME INCREMENT OF                 1.00    
          AND A TOTAL TIME PERIOD OF                            1.00    
          THE MINIMUM TIME INCREMENT ALLOWED IS                1.000E-05
          THE MAXIMUM TIME INCREMENT ALLOWED IS                 1.00    

     LINEAR EQUATION SOLVER TYPE         DIRECT SPARSE

 CONVERGENCE TOLERANCE PARAMETERS FOR FORCE    
     CRITERION FOR RESIDUAL FORCE     FOR A NONLINEAR PROBLEM          5.000E-03
     CRITERION FOR DISP.    CORRECTION IN A NONLINEAR PROBLEM          1.000E-02
     INITIAL VALUE OF TIME AVERAGE FORCE                               1.000E-02
     AVERAGE FORCE     IS TIME AVERAGE FORCE    
     ALTERNATE CRIT. FOR RESIDUAL FORCE     FOR A NONLINEAR PROBLEM    2.000E-02
     CRITERION FOR ZERO FORCE     RELATIVE TO TIME AVRG. FORCE         1.000E-05
     CRITERION FOR RESIDUAL FORCE     WHEN THERE IS ZERO FLUX          1.000E-05
     CRITERION FOR DISP.    CORRECTION WHEN THERE IS ZERO FLUX         1.000E-03
     CRITERION FOR RESIDUAL FORCE     FOR A LINEAR INCREMENT           1.000E-08
     FIELD CONVERSION RATIO                                             1.00    
     CRITERION FOR ZERO FORCE     REL. TO TIME AVRG. MAX. FORCE        1.000E-05
     CRITERION FOR ZERO DISP.    RELATIVE TO CHARACTERISTIC LENGTH     1.000E-08

     VOLUMETRIC STRAIN COMPATIBILITY TOLERANCE FOR HYBRID SOLIDS       1.000E-05
     AXIAL STRAIN COMPATIBILITY TOLERANCE FOR HYBRID BEAMS             1.000E-05
     TRANS. SHEAR STRAIN COMPATIBILITY TOLERANCE FOR HYBRID BEAMS      1.000E-05
     SOFT CONTACT CONSTRAINT COMPATIBILITY TOLERANCE FOR P>P0          5.000E-03
     SOFT CONTACT CONSTRAINT COMPATIBILITY TOLERANCE FOR P=0.0         0.100    
     CONTACT FORCE ERROR TOLERANCE FOR CONVERT SDI=YES                 1.00    
     DISPLACEMENT COMPATIBILITY TOLERANCE FOR DCOUP ELEMENTS           1.000E-05
     ROTATION COMPATIBILITY TOLERANCE FOR DCOUP ELEMENTS               1.000E-05

 EQUILIBRIUM WILL BE CHECKED FOR SEVERE DISCONTINUITY ITERATIONS

 TIME INCREMENTATION CONTROL PARAMETERS:
     FIRST EQUILIBRIUM ITERATION FOR CONSECUTIVE DIVERGENCE CHECK              4
     EQUILIBRIUM ITERATION AT WHICH LOG. CONVERGENCE RATE CHECK BEGINS         8
     EQUILIBRIUM ITERATION AFTER WHICH ALTERNATE RESIDUAL IS USED              9
     MAXIMUM EQUILIBRIUM ITERATIONS ALLOWED                                   16
     EQUILIBRIUM ITERATION COUNT FOR CUT-BACK IN NEXT INCREMENT               10
     MAXIMUM EQUILIB. ITERS IN TWO INCREMENTS FOR TIME INCREMENT INCREASE      4
     MAXIMUM ITERATIONS FOR SEVERE DISCONTINUITIES                            50
     MAXIMUM ATTEMPTS ALLOWED IN AN INCREMENT                                  5
     MAXIMUM DISCON. ITERS IN TWO INCREMENTS FOR TIME INCREMENT INCREASE      50
     MAXIMUM CONTACT AUGMENTATIONS FOR *SURFACE BEHAVIOR,AUGMENTED LAGRANGE   50
     CUT-BACK FACTOR AFTER DIVERGENCE                                 0.2500    
     CUT-BACK FACTOR FOR TOO SLOW CONVERGENCE                         0.5000    
     CUT-BACK FACTOR AFTER TOO MANY EQUILIBRIUM ITERATIONS            0.7500    
     CUT-BACK FACTOR AFTER TOO MANY SEVERE DISCONTINUITY ITERATIONS   0.2500    
     CUT-BACK FACTOR AFTER PROBLEMS IN ELEMENT ASSEMBLY               0.2500    
     INCREASE FACTOR AFTER TWO INCREMENTS THAT CONVERGE QUICKLY        1.500    
     MAX. TIME INCREMENT INCREASE FACTOR ALLOWED                       1.500    
     MAX. TIME INCREMENT INCREASE FACTOR ALLOWED (DYNAMICS)            1.250    
     MAX. TIME INCREMENT INCREASE FACTOR ALLOWED (DIFFUSION)           2.000    
     MINIMUM TIME INCREMENT RATIO FOR EXTRAPOLATION TO OCCUR          0.1000    
     MAX. RATIO OF TIME INCREMENT TO STABILITY LIMIT                   1.000    
     FRACTION OF STABILITY LIMIT FOR NEW TIME INCREMENT               0.9500    
     TIME INCREMENT INCREASE FACTOR BEFORE A TIME POINT                1.000    
     GLOBAL STABILIZATION CONTROL IS NOT USED

          PRINT OF INCREMENT NUMBER, TIME, ETC., EVERY    1  INCREMENTS

     THE MAXIMUM NUMBER OF INCREMENTS IN THIS STEP IS                     100

          LARGE DISPLACEMENT THEORY WILL BE USED

     LINEAR EXTRAPOLATION WILL BE USED

     CHARACTERISTIC ELEMENT LENGTH     4.346E-04

     DETAILS REGARDING ACTUAL SOLUTION WAVEFRONT REQUESTED

     DETAILED OUTPUT OF DIAGNOSTICS TO DATABASE REQUESTED

     PRINT OF INCREMENT NUMBER, TIME, ETC., TO THE MESSAGE FILE EVERY     1  INCREMENTS

     COLLECTING MODEL CONSTRAINT INFORMATION FOR OVERCONSTRAINT CHECKS

     COLLECTING STEP CONSTRAINT INFORMATION FOR OVERCONSTRAINT CHECKS


  INCREMENT     1 STARTS. ATTEMPT NUMBER  1, TIME INCREMENT   1.00    
 
	SYMMETRIC PURE THREAD-BASED DIRECT SPARSE SOLVER RUNNING ON
 	1 HOST x 1 MPI RANK PER HOST x 1 THREAD PER RANK
        NUMBER OF EQUATIONS:  494706
        NUMBER OF RHS:        1
        NUMBER OF FLOPS:      1.131e+11
        SOLVER ELAPSED TIME:  5.6s

               CONVERGENCE CHECKS FOR EQUILIBRIUM ITERATION     1


 AVERAGE FORCE                       793.       TIME AVG. FORCE        793.    
 LARGEST SCALED RESIDUAL FORCE     -1.321E+04   AT NODE      56372   DOF  1
   INSTANCE: FINAL_PART-1                                                                    
  CORRESPONDING RESIDUAL FORCE     -1.321E+04
 LARGEST INCREMENT OF DISP.        -0.128       AT NODE      10604   DOF  3
   INSTANCE: FINAL_PART-1                                                                    
 LARGEST CORRECTION TO DISP.       -0.128       AT NODE      10604   DOF  3
   INSTANCE: FINAL_PART-1                                                                    
          FORCE     EQUILIBRIUM NOT ACHIEVED WITHIN TOLERANCE.
 
	SYMMETRIC PURE THREAD-BASED DIRECT SPARSE SOLVER RUNNING ON
 	1 HOST x 1 MPI RANK PER HOST x 1 THREAD PER RANK
        NUMBER OF EQUATIONS:  494706
        NUMBER OF RHS:        1
        NUMBER OF FLOPS:      1.131e+11
        SOLVER ELAPSED TIME:  6.8s
 

 ***WARNING: THE SYSTEM MATRIX HAS 218767 NEGATIVE EIGENVALUES.

     NEGATIVE EIGENVALUES MEAN THAT THE SYSTEM MATRIX IS NOT 
     POSITIVE DEFINITE:
     FOR EXAMPLE, A BIFURCATION (BUCKLING) LOAD MAY HAVE BEEN EXCEEDED.
   ELEMENT FINAL_PART-1.1 IS DISTORTING EXCESSIVELY.
   ELEMENT FINAL_PART-1.4 IS DISTORTING EXCESSIVELY.
   ELEMENT FINAL_PART-1.6 IS DISTORTING EXCESSIVELY.
   ELEMENT FINAL_PART-1.7 IS DISTORTING EXCESSIVELY.
   ELEMENT FINAL_PART-1.9 IS DISTORTING EXCESSIVELY.
   ELEMENT FINAL_PART-1.13 IS DISTORTING EXCESSIVELY.
   ELEMENT FINAL_PART-1.14 IS DISTORTING EXCESSIVELY.
   ELEMENT FINAL_PART-1.15 IS DISTORTING EXCESSIVELY.
   ELEMENT FINAL_PART-1.18 IS DISTORTING EXCESSIVELY.
   ELEMENT FINAL_PART-1.21 IS DISTORTING EXCESSIVELY.
   ELEMENT FINAL_PART-1.23 IS DISTORTING EXCESSIVELY.
   ELEMENT FINAL_PART-1.25 IS DISTORTING EXCESSIVELY.
   ELEMENT FINAL_PART-1.26 IS DISTORTING EXCESSIVELY.
   ELEMENT FINAL_PART-1.29 IS DISTORTING EXCESSIVELY.
   ELEMENT FINAL_PART-1.34 IS DISTORTING EXCESSIVELY.
   ELEMENT FINAL_PART-1.36 IS DISTORTING EXCESSIVELY.
   ELEMENT FINAL_PART-1.37 IS DISTORTING EXCESSIVELY.
   ELEMENT FINAL_PART-1.38 IS DISTORTING EXCESSIVELY.
   ELEMENT FINAL_PART-1.39 IS DISTORTING EXCESSIVELY.
   ELEMENT FINAL_PART-1.41 IS DISTORTING EXCESSIVELY.
   ELEMENT FINAL_PART-1.42 IS DISTORTING EXCESSIVELY.
   ELEMENT FINAL_PART-1.48 IS DISTORTING EXCESSIVELY.
   ELEMENT FINAL_PART-1.51 IS DISTORTING EXCESSIVELY.
   ELEMENT FINAL_PART-1.57 IS DISTORTING EXCESSIVELY.
   ELEMENT FINAL_PART-1.58 IS DISTORTING EXCESSIVELY.
   ELEMENT FINAL_PART-1.60 IS DISTORTING EXCESSIVELY.
   ELEMENT FINAL_PART-1.62 IS DISTORTING EXCESSIVELY.
   ELEMENT FINAL_PART-1.63 IS DISTORTING EXCESSIVELY.
   ELEMENT FINAL_PART-1.64 IS DISTORTING EXCESSIVELY.
   ELEMENT FINAL_PART-1.65 IS DISTORTING EXCESSIVELY.
   ELEMENT FINAL_PART-1.67 IS DISTORTING EXCESSIVELY.
   ELEMENT FINAL_PART-1.68 IS DISTORTING EXCESSIVELY.
   ELEMENT FINAL_PART-1.70 IS DISTORTING EXCESSIVELY.
   ELEMENT FINAL_PART-1.71 IS DISTORTING EXCESSIVELY.
   ELEMENT FINAL_PART-1.73 IS DISTORTING EXCESSIVELY.
   ELEMENT FINAL_PART-1.74 IS DISTORTING EXCESSIVELY.
   ELEMENT FINAL_PART-1.75 IS DISTORTING EXCESSIVELY.
   ELEMENT FINAL_PART-1.77 IS DISTORTING EXCESSIVELY.
   ELEMENT FINAL_PART-1.78 IS DISTORTING EXCESSIVELY.
   ELEMENT FINAL_PART-1.79 IS DISTORTING EXCESSIVELY.
   ELEMENT FINAL_PART-1.81 IS DISTORTING EXCESSIVELY.
   ELEMENT FINAL_PART-1.82 IS DISTORTING EXCESSIVELY.
   ELEMENT FINAL_PART-1.83 IS DISTORTING EXCESSIVELY.
   ELEMENT FINAL_PART-1.90 IS DISTORTING EXCESSIVELY.
   ELEMENT FINAL_PART-1.91 IS DISTORTING EXCESSIVELY.
   ELEMENT FINAL_PART-1.92 IS DISTORTING EXCESSIVELY.
   ELEMENT FINAL_PART-1.94 IS DISTORTING EXCESSIVELY.
   ELEMENT FINAL_PART-1.95 IS DISTORTING EXCESSIVELY.
   ELEMENT FINAL_PART-1.98 IS DISTORTING EXCESSIVELY.
   ELEMENT FINAL_PART-1.100 IS DISTORTING EXCESSIVELY.
   ELEMENT FINAL_PART-1.101 IS DISTORTING EXCESSIVELY.
   ELEMENT FINAL_PART-1.102 IS DISTORTING EXCESSIVELY.
   ELEMENT FINAL_PART-1.103 IS DISTORTING EXCESSIVELY.
   ELEMENT FINAL_PART-1.104 IS DISTORTING EXCESSIVELY.
   ELEMENT FINAL_PART-1.105 IS DISTORTING EXCESSIVELY.
   ELEMENT FINAL_PART-1.109 IS DISTORTING EXCESSIVELY.
   ELEMENT FINAL_PART-1.110 IS DISTORTING EXCESSIVELY.
   ELEMENT FINAL_PART-1.113 IS DISTORTING EXCESSIVELY.
   ELEMENT FINAL_PART-1.114 IS DISTORTING EXCESSIVELY.
   ELEMENT FINAL_PART-1.117 IS DISTORTING EXCESSIVELY.
   ELEMENT FINAL_PART-1.119 IS DISTORTING EXCESSIVELY.
   ELEMENT FINAL_PART-1.120 IS DISTORTING EXCESSIVELY.
   ELEMENT FINAL_PART-1.121 IS DISTORTING EXCESSIVELY.
   ELEMENT FINAL_PART-1.122 IS DISTORTING EXCESSIVELY.
   ELEMENT FINAL_PART-1.123 IS DISTORTING EXCESSIVELY.
   ELEMENT FINAL_PART-1.124 IS DISTORTING EXCESSIVELY.
   ELEMENT FINAL_PART-1.125 IS DISTORTING EXCESSIVELY.
   ELEMENT FINAL_PART-1.128 IS DISTORTING EXCESSIVELY.
   ELEMENT FINAL_PART-1.130 IS DISTORTING EXCESSIVELY.
   ELEMENT FINAL_PART-1.131 IS DISTORTING EXCESSIVELY.
   ELEMENT FINAL_PART-1.134 IS DISTORTING EXCESSIVELY.
   ELEMENT FINAL_PART-1.135 IS DISTORTING EXCESSIVELY.
   ELEMENT FINAL_PART-1.137 IS DISTORTING EXCESSIVELY.
   ELEMENT FINAL_PART-1.138 IS DISTORTING EXCESSIVELY.
   ELEMENT FINAL_PART-1.139 IS DISTORTING EXCESSIVELY.
   ELEMENT FINAL_PART-1.142 IS DISTORTING EXCESSIVELY.
   ELEMENT FINAL_PART-1.143 IS DISTORTING EXCESSIVELY.
   ELEMENT FINAL_PART-1.144 IS DISTORTING EXCESSIVELY.
   ELEMENT FINAL_PART-1.146 IS DISTORTING EXCESSIVELY.
   ELEMENT FINAL_PART-1.147 IS DISTORTING EXCESSIVELY.
   ELEMENT FINAL_PART-1.148 IS DISTORTING EXCESSIVELY.
   ELEMENT FINAL_PART-1.149 IS DISTORTING EXCESSIVELY.
   ELEMENT FINAL_PART-1.150 IS DISTORTING EXCESSIVELY.
   ELEMENT FINAL_PART-1.152 IS DISTORTING EXCESSIVELY.
   ELEMENT FINAL_PART-1.153 IS DISTORTING EXCESSIVELY.
   ELEMENT FINAL_PART-1.156 IS DISTORTING EXCESSIVELY.
   ELEMENT FINAL_PART-1.157 IS DISTORTING EXCESSIVELY.
   ELEMENT FINAL_PART-1.158 IS DISTORTING EXCESSIVELY.
   ELEMENT FINAL_PART-1.160 IS DISTORTING EXCESSIVELY.
   ELEMENT FINAL_PART-1.163 IS DISTORTING EXCESSIVELY.
   ELEMENT FINAL_PART-1.164 IS DISTORTING EXCESSIVELY.
   ELEMENT FINAL_PART-1.167 IS DISTORTING EXCESSIVELY.
   ELEMENT FINAL_PART-1.172 IS DISTORTING EXCESSIVELY.
   ELEMENT FINAL_PART-1.179 IS DISTORTING EXCESSIVELY.
   ELEMENT FINAL_PART-1.180 IS DISTORTING EXCESSIVELY.
   ELEMENT FINAL_PART-1.181 IS DISTORTING EXCESSIVELY.
   ELEMENT FINAL_PART-1.183 IS DISTORTING EXCESSIVELY.
   ELEMENT FINAL_PART-1.184 IS DISTORTING EXCESSIVELY.
   ELEMENT FINAL_PART-1.185 IS DISTORTING EXCESSIVELY.
   ELEMENT FINAL_PART-1.186 IS DISTORTING EXCESSIVELY.
   ELEMENT FINAL_PART-1.190 IS DISTORTING EXCESSIVELY.
   ELEMENT FINAL_PART-1.191 IS DISTORTING EXCESSIVELY.
   ELEMENT FINAL_PART-1.192 IS DISTORTING EXCESSIVELY.
   ELEMENT FINAL_PART-1.195 IS DISTORTING EXCESSIVELY.
   ELEMENT FINAL_PART-1.198 IS DISTORTING EXCESSIVELY.
   ELEMENT FINAL_PART-1.201 IS DISTORTING EXCESSIVELY.
   ELEMENT FINAL_PART-1.204 IS DISTORTING EXCESSIVELY.
   ELEMENT FINAL_PART-1.211 IS DISTORTING EXCESSIVELY.
   ELEMENT FINAL_PART-1.212 IS DISTORTING EXCESSIVELY.
   ELEMENT FINAL_PART-1.215 IS DISTORTING EXCESSIVELY.
   ELEMENT FINAL_PART-1.216 IS DISTORTING EXCESSIVELY.
   ELEMENT FINAL_PART-1.217 IS DISTORTING EXCESSIVELY.
   ELEMENT FINAL_PART-1.218 IS DISTORTING EXCESSIVELY.
   ELEMENT FINAL_PART-1.219 IS DISTORTING EXCESSIVELY.
   ELEMENT FINAL_PART-1.220 IS DISTORTING EXCESSIVELY.
   ELEMENT FINAL_PART-1.222 IS DISTORTING EXCESSIVELY.
   ELEMENT FINAL_PART-1.223 IS DISTORTING EXCESSIVELY.
   ELEMENT FINAL_PART-1.224 IS DISTORTING EXCESSIVELY.
   ELEMENT FINAL_PART-1.226 IS DISTORTING EXCESSIVELY.
   ELEMENT FINAL_PART-1.227 IS DISTORTING EXCESSIVELY.
   ELEMENT FINAL_PART-1.228 IS DISTORTING EXCESSIVELY.
   ELEMENT FINAL_PART-1.229 IS DISTORTING EXCESSIVELY.
   ELEMENT FINAL_PART-1.230 IS DISTORTING EXCESSIVELY.
   ELEMENT FINAL_PART-1.231 IS DISTORTING EXCESSIVELY.
   ELEMENT FINAL_PART-1.232 IS DISTORTING EXCESSIVELY.
   ELEMENT FINAL_PART-1.234 IS DISTORTING EXCESSIVELY.
   ELEMENT FINAL_PART-1.235 IS DISTORTING EXCESSIVELY.
   ELEMENT FINAL_PART-1.238 IS DISTORTING EXCESSIVELY.
   ELEMENT FINAL_PART-1.239 IS DISTORTING EXCESSIVELY.
   ELEMENT FINAL_PART-1.240 IS DISTORTING EXCESSIVELY.
   ELEMENT FINAL_PART-1.241 IS DISTORTING EXCESSIVELY.
   ELEMENT FINAL_PART-1.242 IS DISTORTING EXCESSIVELY.
   ELEMENT FINAL_PART-1.243 IS DISTORTING EXCESSIVELY.
   ELEMENT FINAL_PART-1.244 IS DISTORTING EXCESSIVELY.
   ELEMENT FINAL_PART-1.245 IS DISTORTING EXCESSIVELY.
   ELEMENT FINAL_PART-1.246 IS DISTORTING EXCESSIVELY.
   ELEMENT FINAL_PART-1.248 IS DISTORTING EXCESSIVELY.
   ELEMENT FINAL_PART-1.249 IS DISTORTING EXCESSIVELY.
   ELEMENT FINAL_PART-1.251 IS DISTORTING EXCESSIVELY.
   ELEMENT FINAL_PART-1.252 IS DISTORTING EXCESSIVELY.
   ELEMENT FINAL_PART-1.253 IS DISTORTING EXCESSIVELY.
   ELEMENT FINAL_PART-1.254 IS DISTORTING EXCESSIVELY.
   ELEMENT FINAL_PART-1.255 IS DISTORTING EXCESSIVELY.
   ELEMENT FINAL_PART-1.258 IS DISTORTING EXCESSIVELY.
   ELEMENT FINAL_PART-1.259 IS DISTORTING EXCESSIVELY.
   ELEMENT FINAL_PART-1.265 IS DISTORTING EXCESSIVELY.
   ELEMENT FINAL_PART-1.268 IS DISTORTING EXCESSIVELY.
   ELEMENT FINAL_PART-1.269 IS DISTORTING EXCESSIVELY.
   ELEMENT FINAL_PART-1.271 IS DISTORTING EXCESSIVELY.
   ELEMENT FINAL_PART-1.272 IS DISTORTING EXCESSIVELY.
   ELEMENT FINAL_PART-1.273 IS DISTORTING EXCESSIVELY.
   ELEMENT FINAL_PART-1.274 IS DISTORTING EXCESSIVELY.
   ELEMENT FINAL_PART-1.276 IS DISTORTING EXCESSIVELY.
   ELEMENT FINAL_PART-1.279 IS DISTORTING EXCESSIVELY.
   ELEMENT FINAL_PART-1.280 IS DISTORTING EXCESSIVELY.
   ELEMENT FINAL_PART-1.281 IS DISTORTING EXCESSIVELY.
   ELEMENT FINAL_PART-1.282 IS DISTORTING EXCESSIVELY.
   ELEMENT FINAL_PART-1.285 IS DISTORTING EXCESSIVELY.
   ELEMENT FINAL_PART-1.286 IS DISTORTING EXCESSIVELY.
   ELEMENT FINAL_PART-1.287 IS DISTORTING EXCESSIVELY.
   ELEMENT FINAL_PART-1.288 IS DISTORTING EXCESSIVELY.
   ELEMENT FINAL_PART-1.289 IS DISTORTING EXCESSIVELY.
   ELEMENT FINAL_PART-1.290 IS DISTORTING EXCESSIVELY.
   ELEMENT FINAL_PART-1.291 IS DISTORTING EXCESSIVELY.
   ELEMENT FINAL_PART-1.292 IS DISTORTING EXCESSIVELY.
   ELEMENT FINAL_PART-1.297 IS DISTORTING EXCESSIVELY.
   ELEMENT FINAL_PART-1.299 IS DISTORTING EXCESSIVELY.
   ELEMENT FINAL_PART-1.302 IS DISTORTING EXCESSIVELY.
   ELEMENT FINAL_PART-1.308 IS DISTORTING EXCESSIVELY.
   ELEMENT FINAL_PART-1.310 IS DISTORTING EXCESSIVELY.
   ELEMENT FINAL_PART-1.311 IS DISTORTING EXCESSIVELY.
   ELEMENT FINAL_PART-1.312 IS DISTORTING EXCESSIVELY.
   ELEMENT FINAL_PART-1.315 IS DISTORTING EXCESSIVELY.
   ELEMENT FINAL_PART-1.316 IS DISTORTING EXCESSIVELY.
   ELEMENT FINAL_PART-1.318 IS DISTORTING EXCESSIVELY.
   ELEMENT FINAL_PART-1.319 IS DISTORTING EXCESSIVELY.
   ELEMENT FINAL_PART-1.322 IS DISTORTING EXCESSIVELY.
   ELEMENT FINAL_PART-1.325 IS DISTORTING EXCESSIVELY.
   ELEMENT FINAL_PART-1.330 IS DISTORTING EXCESSIVELY.
   ELEMENT FINAL_PART-1.331 IS DISTORTING EXCESSIVELY.
   ELEMENT FINAL_PART-1.337 IS DISTORTING EXCESSIVELY.
   ELEMENT FINAL_PART-1.340 IS DISTORTING EXCESSIVELY.
   ELEMENT FINAL_PART-1.341 IS DISTORTING EXCESSIVELY.
   ELEMENT FINAL_PART-1.342 IS DISTORTING EXCESSIVELY.
   ELEMENT FINAL_PART-1.344 IS DISTORTING EXCESSIVELY.
   ELEMENT FINAL_PART-1.345 IS DISTORTING EXCESSIVELY.
   ELEMENT FINAL_PART-1.346 IS DISTORTING EXCESSIVELY.
   ELEMENT FINAL_PART-1.348 IS DISTORTING EXCESSIVELY.
   ELEMENT FINAL_PART-1.349 IS DISTORTING EXCESSIVELY.
   ELEMENT FINAL_PART-1.350 IS DISTORTING EXCESSIVELY.
   ELEMENT FINAL_PART-1.352 IS DISTORTING EXCESSIVELY.
   ELEMENT FINAL_PART-1.353 IS DISTORTING EXCESSIVELY.
   ELEMENT FINAL_PART-1.354 IS DISTORTING EXCESSIVELY.
   ELEMENT FINAL_PART-1.358 IS DISTORTING EXCESSIVELY.
   ELEMENT FINAL_PART-1.361 IS DISTORTING EXCESSIVELY.
   ELEMENT FINAL_PART-1.362 IS DISTORTING EXCESSIVELY.
   ELEMENT FINAL_PART-1.365 IS DISTORTING EXCESSIVELY.
   ELEMENT FINAL_PART-1.366 IS DISTORTING EXCESSIVELY.
   ELEMENT FINAL_PART-1.369 IS DISTORTING EXCESSIVELY.
   ELEMENT FINAL_PART-1.370 IS DISTORTING EXCESSIVELY.
   ELEMENT FINAL_PART-1.378 IS DISTORTING EXCESSIVELY.
   ELEMENT FINAL_PART-1.384 IS DISTORTING EXCESSIVELY.
   ELEMENT FINAL_PART-1.388 IS DISTORTING EXCESSIVELY.
   ELEMENT FINAL_PART-1.391 IS DISTORTING EXCESSIVELY.
   ELEMENT FINAL_PART-1.394 IS DISTORTING EXCESSIVELY.
   ELEMENT FINAL_PART-1.395 IS DISTORTING EXCESSIVELY.
   ELEMENT FINAL_PART-1.398 IS DISTORTING EXCESSIVELY.
   ELEMENT FINAL_PART-1.399 IS DISTORTING EXCESSIVELY.
   ELEMENT FINAL_PART-1.400 IS DISTORTING EXCESSIVELY.
   ELEMENT FINAL_PART-1.401 IS DISTORTING EXCESSIVELY.
   ELEMENT FINAL_PART-1.404 IS DISTORTING EXCESSIVELY.
   ELEMENT FINAL_PART-1.405 IS DISTORTING EXCESSIVELY.
   ELEMENT FINAL_PART-1.406 IS DISTORTING EXCESSIVELY.
   ELEMENT FINAL_PART-1.407 IS DISTORTING EXCESSIVELY.
   ELEMENT FINAL_PART-1.408 IS DISTORTING EXCESSIVELY.
   ELEMENT FINAL_PART-1.415 IS DISTORTING EXCESSIVELY.
   ELEMENT FINAL_PART-1.417 IS DISTORTING EXCESSIVELY.
   ELEMENT FINAL_PART-1.419 IS DISTORTING EXCESSIVELY.
   ELEMENT FINAL_PART-1.420 IS DISTORTING EXCESSIVELY.
   ELEMENT FINAL_PART-1.421 IS DISTORTING EXCESSIVELY.
   ELEMENT FINAL_PART-1.422 IS DISTORTING EXCESSIVELY.
   ELEMENT FINAL_PART-1.423 IS DISTORTING EXCESSIVELY.
   ELEMENT FINAL_PART-1.424 IS DISTORTING EXCESSIVELY.
   ELEMENT FINAL_PART-1.426 IS DISTORTING EXCESSIVELY.
   ELEMENT FINAL_PART-1.427 IS DISTORTING EXCESSIVELY.
   ELEMENT FINAL_PART-1.428 IS DISTORTING EXCESSIVELY.
   ELEMENT FINAL_PART-1.429 IS DISTORTING EXCESSIVELY.
   ELEMENT FINAL_PART-1.431 IS DISTORTING EXCESSIVELY.
   ELEMENT FINAL_PART-1.432 IS DISTORTING EXCESSIVELY.
   ELEMENT FINAL_PART-1.434 IS DISTORTING EXCESSIVELY.
   ELEMENT FINAL_PART-1.438 IS DISTORTING EXCESSIVELY.
   ELEMENT FINAL_PART-1.439 IS DISTORTING EXCESSIVELY.
   ELEMENT FINAL_PART-1.440 IS DISTORTING EXCESSIVELY.
   ELEMENT FINAL_PART-1.441 IS DISTORTING EXCESSIVELY.
   ELEMENT FINAL_PART-1.444 IS DISTORTING EXCESSIVELY.
   ELEMENT FINAL_PART-1.446 IS DISTORTING EXCESSIVELY.
   ELEMENT FINAL_PART-1.449 IS DISTORTING EXCESSIVELY.
   ELEMENT FINAL_PART-1.450 IS DISTORTING EXCESSIVELY.
   ELEMENT FINAL_PART-1.453 IS DISTORTING EXCESSIVELY.
   ELEMENT FINAL_PART-1.454 IS DISTORTING EXCESSIVELY.
   ELEMENT FINAL_PART-1.456 IS DISTORTING EXCESSIVELY.
   ELEMENT FINAL_PART-1.457 IS DISTORTING EXCESSIVELY.
   ELEMENT FINAL_PART-1.459 IS DISTORTING EXCESSIVELY.
   ELEMENT FINAL_PART-1.460 IS DISTORTING EXCESSIVELY.
   ELEMENT FINAL_PART-1.461 IS DISTORTING EXCESSIVELY.
   ELEMENT FINAL_PART-1.463 IS DISTORTING EXCESSIVELY.
   ELEMENT FINAL_PART-1.464 IS DISTORTING EXCESSIVELY.
   ELEMENT FINAL_PART-1.467 IS DISTORTING EXCESSIVELY.
   ELEMENT FINAL_PART-1.469 IS DISTORTING EXCESSIVELY.
   ELEMENT FINAL_PART-1.470 IS DISTORTING EXCESSIVELY.
   ELEMENT FINAL_PART-1.471 IS DISTORTING EXCESSIVELY.
   ELEMENT FINAL_PART-1.472 IS DISTORTING EXCESSIVELY.
   ELEMENT FINAL_PART-1.474 IS DISTORTING EXCESSIVELY.
   ELEMENT FINAL_PART-1.475 IS DISTORTING EXCESSIVELY.
   ELEMENT FINAL_PART-1.476 IS DISTORTING EXCESSIVELY.
   ELEMENT FINAL_PART-1.478 IS DISTORTING EXCESSIVELY.
   ELEMENT FINAL_PART-1.482 IS DISTORTING EXCESSIVELY.
   ELEMENT FINAL_PART-1.483 IS DISTORTING EXCESSIVELY.
   ELEMENT FINAL_PART-1.484 IS DISTORTING EXCESSIVELY.
   ELEMENT FINAL_PART-1.487 IS DISTORTING EXCESSIVELY.
   ELEMENT FINAL_PART-1.488 IS DISTORTING EXCESSIVELY.
   ELEMENT FINAL_PART-1.490 IS DISTORTING EXCESSIVELY.
   ELEMENT FINAL_PART-1.491 IS DISTORTING EXCESSIVELY.
   ELEMENT FINAL_PART-1.492 IS DISTORTING EXCESSIVELY.
   ELEMENT FINAL_PART-1.493 IS DISTORTING EXCESSIVELY.
   ELEMENT FINAL_PART-1.494 IS DISTORTING EXCESSIVELY.
   ELEMENT FINAL_PART-1.497 IS DISTORTING EXCESSIVELY.
   ELEMENT FINAL_PART-1.498 IS DISTORTING EXCESSIVELY.
   ELEMENT FINAL_PART-1.499 IS DISTORTING EXCESSIVELY.
   ELEMENT FINAL_PART-1.500 IS DISTORTING EXCESSIVELY.
   ELEMENT FINAL_PART-1.503 IS DISTORTING EXCESSIVELY.
   ELEMENT FINAL_PART-1.504 IS DISTORTING EXCESSIVELY.
   ELEMENT FINAL_PART-1.507 IS DISTORTING EXCESSIVELY.
   ELEMENT FINAL_PART-1.510 IS DISTORTING EXCESSIVELY.
   ELEMENT FINAL_PART-1.511 IS DISTORTING EXCESSIVELY.
   ELEMENT FINAL_PART-1.513 IS DISTORTING EXCESSIVELY.
   ELEMENT FINAL_PART-1.514 IS DISTORTING EXCESSIVELY.
   ELEMENT FINAL_PART-1.517 IS DISTORTING EXCESSIVELY.
   ELEMENT FINAL_PART-1.518 IS DISTORTING EXCESSIVELY.
   ELEMENT FINAL_PART-1.519 IS DISTORTING EXCESSIVELY.
   ELEMENT FINAL_PART-1.523 IS DISTORTING EXCESSIVELY.
   ELEMENT FINAL_PART-1.526 IS DISTORTING EXCESSIVELY.
   ELEMENT FINAL_PART-1.527 IS DISTORTING EXCESSIVELY.
   ELEMENT FINAL_PART-1.530 IS DISTORTING EXCESSIVELY.
   ELEMENT FINAL_PART-1.532 IS DISTORTING EXCESSIVELY.
   ELEMENT FINAL_PART-1.534 IS DISTORTING EXCESSIVELY.
   ELEMENT FINAL_PART-1.535 IS DISTORTING EXCESSIVELY.
   ELEMENT FINAL_PART-1.536 IS DISTORTING EXCESSIVELY.
   ELEMENT FINAL_PART-1.537 IS DISTORTING EXCESSIVELY.
   ELEMENT FINAL_PART-1.539 IS DISTORTING EXCESSIVELY.
   ELEMENT FINAL_PART-1.540 IS DISTORTING EXCESSIVELY.
   ELEMENT FINAL_PART-1.542 IS DISTORTING EXCESSIVELY.
   ELEMENT FINAL_PART-1.543 IS DISTORTING EXCESSIVELY.
   ELEMENT FINAL_PART-1.547 IS DISTORTING EXCESSIVELY.
   ELEMENT FINAL_PART-1.550 IS DISTORTING EXCESSIVELY.
   ELEMENT FINAL_PART-1.552 IS DISTORTING EXCESSIVELY.
   ELEMENT FINAL_PART-1.553 IS DISTORTING EXCESSIVELY.
   ELEMENT FINAL_PART-1.556 IS DISTORTING EXCESSIVELY.
   ELEMENT FINAL_PART-1.558 IS DISTORTING EXCESSIVELY.
   ELEMENT FINAL_PART-1.560 IS DISTORTING EXCESSIVELY.
   ELEMENT FINAL_PART-1.561 IS DISTORTING EXCESSIVELY.
   ELEMENT FINAL_PART-1.563 IS DISTORTING EXCESSIVELY.
   ELEMENT FINAL_PART-1.564 IS DISTORTING EXCESSIVELY.
   ELEMENT FINAL_PART-1.565 IS DISTORTING EXCESSIVELY.
   ELEMENT FINAL_PART-1.567 IS DISTORTING EXCESSIVELY.
   ELEMENT FINAL_PART-1.568 IS DISTORTING EXCESSIVELY.
   ELEMENT FINAL_PART-1.569 IS DISTORTING EXCESSIVELY.
   ELEMENT FINAL_PART-1.570 IS DISTORTING EXCESSIVELY.
   ELEMENT FINAL_PART-1.571 IS DISTORTING EXCESSIVELY.
   ELEMENT FINAL_PART-1.572 IS DISTORTING EXCESSIVELY.
   ELEMENT FINAL_PART-1.573 IS DISTORTING EXCESSIVELY.
   ELEMENT FINAL_PART-1.575 IS DISTORTING EXCESSIVELY.
   ELEMENT FINAL_PART-1.576 IS DISTORTING EXCESSIVELY.
   ELEMENT FINAL_PART-1.577 IS DISTORTING EXCESSIVELY.
   ELEMENT FINAL_PART-1.578 IS DISTORTING EXCESSIVELY.
   ELEMENT FINAL_PART-1.581 IS DISTORTING EXCESSIVELY.
   ELEMENT FINAL_PART-1.584 IS DISTORTING EXCESSIVELY.
   ELEMENT FINAL_PART-1.587 IS DISTORTING EXCESSIVELY.
   ELEMENT FINAL_PART-1.588 IS DISTORTING EXCESSIVELY.
   ELEMENT FINAL_PART-1.589 IS DISTORTING EXCESSIVELY.
   ELEMENT FINAL_PART-1.591 IS DISTORTING EXCESSIVELY.
   ELEMENT FINAL_PART-1.592 IS DISTORTING EXCESSIVELY.
   ELEMENT FINAL_PART-1.594 IS DISTORTING EXCESSIVELY.
   ELEMENT FINAL_PART-1.598 IS DISTORTING EXCESSIVELY.
   ELEMENT FINAL_PART-1.599 IS DISTORTING EXCESSIVELY.
   ELEMENT FINAL_PART-1.602 IS DISTORTING EXCESSIVELY.
   ELEMENT FINAL_PART-1.603 IS DISTORTING EXCESSIVELY.
   ELEMENT FINAL_PART-1.605 IS DISTORTING EXCESSIVELY.
   ELEMENT FINAL_PART-1.606 IS DISTORTING EXCESSIVELY.
   ELEMENT FINAL_PART-1.607 IS DISTORTING EXCESSIVELY.
   ELEMENT FINAL_PART-1.608 IS DISTORTING EXCESSIVELY.
   ELEMENT FINAL_PART-1.609 IS DISTORTING EXCESSIVELY.
   ELEMENT FINAL_PART-1.612 IS DISTORTING EXCESSIVELY.
   ELEMENT FINAL_PART-1.614 IS DISTORTING EXCESSIVELY.
   ELEMENT FINAL_PART-1.619 IS DISTORTING EXCESSIVELY.
   ELEMENT FINAL_PART-1.620 IS DISTORTING EXCESSIVELY.
   ELEMENT FINAL_PART-1.621 IS DISTORTING EXCESSIVELY.
   ELEMENT FINAL_PART-1.622 IS DISTORTING EXCESSIVELY.
   ELEMENT FINAL_PART-1.624 IS DISTORTING EXCESSIVELY.
   ELEMENT FINAL_PART-1.626 IS DISTORTING EXCESSIVELY.
   ELEMENT FINAL_PART-1.627 IS DISTORTING EXCESSIVELY.
   ELEMENT FINAL_PART-1.628 IS DISTORTING EXCESSIVELY.
   ELEMENT FINAL_PART-1.629 IS DISTORTING EXCESSIVELY.
   ELEMENT FINAL_PART-1.631 IS DISTORTING EXCESSIVELY.
   ELEMENT FINAL_PART-1.634 IS DISTORTING EXCESSIVELY.
   ELEMENT FINAL_PART-1.635 IS DISTORTING EXCESSIVELY.
   ELEMENT FINAL_PART-1.636 IS DISTORTING EXCESSIVELY.
   ELEMENT FINAL_PART-1.640 IS DISTORTING EXCESSIVELY.
   ELEMENT FINAL_PART-1.642 IS DISTORTING EXCESSIVELY.
   ELEMENT FINAL_PART-1.647 IS DISTORTING EXCESSIVELY.
   ELEMENT FINAL_PART-1.649 IS DISTORTING EXCESSIVELY.
   ELEMENT FINAL_PART-1.652 IS DISTORTING EXCESSIVELY.
   ELEMENT FINAL_PART-1.653 IS DISTORTING EXCESSIVELY.
   ELEMENT FINAL_PART-1.655 IS DISTORTING EXCESSIVELY.
   ELEMENT FINAL_PART-1.660 IS DISTORTING EXCESSIVELY.
   ELEMENT FINAL_PART-1.661 IS DISTORTING EXCESSIVELY.
   ELEMENT FINAL_PART-1.665 IS DISTORTING EXCESSIVELY.
   ELEMENT FINAL_PART-1.666 IS DISTORTING EXCESSIVELY.
   ELEMENT FINAL_PART-1.667 IS DISTORTING EXCESSIVELY.
   ELEMENT FINAL_PART-1.668 IS DISTORTING EXCESSIVELY.
   ELEMENT FINAL_PART-1.670 IS DISTORTING EXCESSIVELY.
   ELEMENT FINAL_PART-1.671 IS DISTORTING EXCESSIVELY.
   ELEMENT FINAL_PART-1.673 IS DISTORTING EXCESSIVELY.
   ELEMENT FINAL_PART-1.674 IS DISTORTING EXCESSIVELY.
   ELEMENT FINAL_PART-1.676 IS DISTORTING EXCESSIVELY.
   ELEMENT FINAL_PART-1.678 IS DISTORTING EXCESSIVELY.
   ELEMENT FINAL_PART-1.679 IS DISTORTING EXCESSIVELY.
   ELEMENT FINAL_PART-1.680 IS DISTORTING EXCESSIVELY.
   ELEMENT FINAL_PART-1.685 IS DISTORTING EXCESSIVELY.
   ELEMENT FINAL_PART-1.687 IS DISTORTING EXCESSIVELY.
   ELEMENT FINAL_PART-1.688 IS DISTORTING EXCESSIVELY.
   ELEMENT FINAL_PART-1.693 IS DISTORTING EXCESSIVELY.
   ELEMENT FINAL_PART-1.698 IS DISTORTING EXCESSIVELY.
   ELEMENT FINAL_PART-1.699 IS DISTORTING EXCESSIVELY.
   ELEMENT FINAL_PART-1.700 IS DISTORTING EXCESSIVELY.
   ELEMENT FINAL_PART-1.701 IS DISTORTING EXCESSIVELY.
   ELEMENT FINAL_PART-1.703 IS DISTORTING EXCESSIVELY.
   ELEMENT FINAL_PART-1.705 IS DISTORTING EXCESSIVELY.
   ELEMENT FINAL_PART-1.706 IS DISTORTING EXCESSIVELY.
   ELEMENT FINAL_PART-1.711 IS DISTORTING EXCESSIVELY.
   ELEMENT FINAL_PART-1.713 IS DISTORTING EXCESSIVELY.
   ELEMENT FINAL_PART-1.714 IS DISTORTING EXCESSIVELY.
   ELEMENT FINAL_PART-1.717 IS DISTORTING EXCESSIVELY.
   ELEMENT FINAL_PART-1.720 IS DISTORTING EXCESSIVELY.
   ELEMENT FINAL_PART-1.723 IS DISTORTING EXCESSIVELY.
   ELEMENT FINAL_PART-1.726 IS DISTORTING EXCESSIVELY.
   ELEMENT FINAL_PART-1.729 IS DISTORTING EXCESSIVELY.
   ELEMENT FINAL_PART-1.730 IS DISTORTING EXCESSIVELY.
   ELEMENT FINAL_PART-1.731 IS DISTORTING EXCESSIVELY.
   ELEMENT FINAL_PART-1.740 IS DISTORTING EXCESSIVELY.
   ELEMENT FINAL_PART-1.743 IS DISTORTING EXCESSIVELY.
   ELEMENT FINAL_PART-1.744 IS DISTORTING EXCESSIVELY.
   ELEMENT FINAL_PART-1.746 IS DISTORTING EXCESSIVELY.
   ELEMENT FINAL_PART-1.749 IS DISTORTING EXCESSIVELY.
   ELEMENT FINAL_PART-1.751 IS DISTORTING EXCESSIVELY.
   ELEMENT FINAL_PART-1.752 IS DISTORTING EXCESSIVELY.
   ELEMENT FINAL_PART-1.755 IS DISTORTING EXCESSIVELY.
   ELEMENT FINAL_PART-1.756 IS DISTORTING EXCESSIVELY.
   ELEMENT FINAL_PART-1.757 IS DISTORTING EXCESSIVELY.
   ELEMENT FINAL_PART-1.759 IS DISTORTING EXCESSIVELY.
   ELEMENT FINAL_PART-1.761 IS DISTORTING EXCESSIVELY.
   ELEMENT FINAL_PART-1.763 IS DISTORTING EXCESSIVELY.
   ELEMENT FINAL_PART-1.766 IS DISTORTING EXCESSIVELY.
   ELEMENT FINAL_PART-1.767 IS DISTORTING EXCESSIVELY.
   ELEMENT FINAL_PART-1.768 IS DISTORTING EXCESSIVELY.
   ELEMENT FINAL_PART-1.770 IS DISTORTING EXCESSIVELY.
   ELEMENT FINAL_PART-1.771 IS DISTORTING EXCESSIVELY.
   ELEMENT FINAL_PART-1.772 IS DISTORTING EXCESSIVELY.
   ELEMENT FINAL_PART-1.773 IS DISTORTING EXCESSIVELY.
   ELEMENT FINAL_PART-1.774 IS DISTORTING EXCESSIVELY.
   ELEMENT FINAL_PART-1.775 IS DISTORTING EXCESSIVELY.
   ELEMENT FINAL_PART-1.778 IS DISTORTING EXCESSIVELY.
   ELEMENT FINAL_PART-1.779 IS DISTORTING EXCESSIVELY.
   ELEMENT FINAL_PART-1.780 IS DISTORTING EXCESSIVELY.
   ELEMENT FINAL_PART-1.782 IS DISTORTING EXCESSIVELY.
   ELEMENT FINAL_PART-1.783 IS DISTORTING EXCESSIVELY.
   ELEMENT FINAL_PART-1.784 IS DISTORTING EXCESSIVELY.
   ELEMENT FINAL_PART-1.786 IS DISTORTING EXCESSIVELY.
   ELEMENT FINAL_PART-1.787 IS DISTORTING EXCESSIVELY.
   ELEMENT FINAL_PART-1.789 IS DISTORTING EXCESSIVELY.
   ELEMENT FINAL_PART-1.790 IS DISTORTING EXCESSIVELY.
   ELEMENT FINAL_PART-1.794 IS DISTORTING EXCESSIVELY.
   ELEMENT FINAL_PART-1.795 IS DISTORTING EXCESSIVELY.
   ELEMENT FINAL_PART-1.796 IS DISTORTING EXCESSIVELY.
   ELEMENT FINAL_PART-1.797 IS DISTORTING EXCESSIVELY.
   ELEMENT FINAL_PART-1.799 IS DISTORTING EXCESSIVELY.
   ELEMENT FINAL_PART-1.802 IS DISTORTING EXCESSIVELY.
   ELEMENT FINAL_PART-1.804 IS DISTORTING EXCESSIVELY.
   ELEMENT FINAL_PART-1.805 IS DISTORTING EXCESSIVELY.
   ELEMENT FINAL_PART-1.806 IS DISTORTING EXCESSIVELY.
   ELEMENT FINAL_PART-1.807 IS DISTORTING EXCESSIVELY.
   ELEMENT FINAL_PART-1.810 IS DISTORTING EXCESSIVELY.
   ELEMENT FINAL_PART-1.816 IS DISTORTING EXCESSIVELY.
   ELEMENT FINAL_PART-1.817 IS DISTORTING EXCESSIVELY.
   ELEMENT FINAL_PART-1.818 IS DISTORTING EXCESSIVELY.
   ELEMENT FINAL_PART-1.819 IS DISTORTING EXCESSIVELY.
   ELEMENT FINAL_PART-1.820 IS DISTORTING EXCESSIVELY.
   ELEMENT FINAL_PART-1.821 IS DISTORTING EXCESSIVELY.
   ELEMENT FINAL_PART-1.823 IS DISTORTING EXCESSIVELY.
   ELEMENT FINAL_PART-1.826 IS DISTORTING EXCESSIVELY.
   ELEMENT FINAL_PART-1.827 IS DISTORTING EXCESSIVELY.
   ELEMENT FINAL_PART-1.828 IS DISTORTING EXCESSIVELY.
   ELEMENT FINAL_PART-1.829 IS DISTORTING EXCESSIVELY.
   ELEMENT FINAL_PART-1.830 IS DISTORTING EXCESSIVELY.
   ELEMENT FINAL_PART-1.831 IS DISTORTING EXCESSIVELY.
   ELEMENT FINAL_PART-1.833 IS DISTORTING EXCESSIVELY.
   ELEMENT FINAL_PART-1.836 IS DISTORTING EXCESSIVELY.
   ELEMENT FINAL_PART-1.837 IS DISTORTING EXCESSIVELY.
   ELEMENT FINAL_PART-1.839 IS DISTORTING EXCESSIVELY.
   ELEMENT FINAL_PART-1.840 IS DISTORTING EXCESSIVELY.
   ELEMENT FINAL_PART-1.843 IS DISTORTING EXCESSIVELY.
   ELEMENT FINAL_PART-1.846 IS DISTORTING EXCESSIVELY.
   ELEMENT FINAL_PART-1.847 IS DISTORTING EXCESSIVELY.
   ELEMENT FINAL_PART-1.849 IS DISTORTING EXCESSIVELY.
   ELEMENT FINAL_PART-1.850 IS DISTORTING EXCESSIVELY.
   ELEMENT FINAL_PART-1.851 IS DISTORTING EXCESSIVELY.
   ELEMENT FINAL_PART-1.852 IS DISTORTING EXCESSIVELY.
   ELEMENT FINAL_PART-1.853 IS DISTORTING EXCESSIVELY.
   ELEMENT FINAL_PART-1.855 IS DISTORTING EXCESSIVELY.
   ELEMENT FINAL_PART-1.857 IS DISTORTING EXCESSIVELY.
   ELEMENT FINAL_PART-1.860 IS DISTORTING EXCESSIVELY.
   ELEMENT FINAL_PART-1.862 IS DISTORTING EXCESSIVELY.
   ELEMENT FINAL_PART-1.863 IS DISTORTING EXCESSIVELY.
   ELEMENT FINAL_PART-1.864 IS DISTORTING EXCESSIVELY.
   ELEMENT FINAL_PART-1.865 IS DISTORTING EXCESSIVELY.
   ELEMENT FINAL_PART-1.866 IS DISTORTING EXCESSIVELY.
   ELEMENT FINAL_PART-1.869 IS DISTORTING EXCESSIVELY.
   ELEMENT FINAL_PART-1.870 IS DISTORTING EXCESSIVELY.
   ELEMENT FINAL_PART-1.871 IS DISTORTING EXCESSIVELY.
   ELEMENT FINAL_PART-1.872 IS DISTORTING EXCESSIVELY.
   ELEMENT FINAL_PART-1.873 IS DISTORTING EXCESSIVELY.
   ELEMENT FINAL_PART-1.877 IS DISTORTING EXCESSIVELY.
   ELEMENT FINAL_PART-1.879 IS DISTORTING EXCESSIVELY.
   ELEMENT FINAL_PART-1.880 IS DISTORTING EXCESSIVELY.
   ELEMENT FINAL_PART-1.884 IS DISTORTING EXCESSIVELY.
   ELEMENT FINAL_PART-1.886 IS DISTORTING EXCESSIVELY.
   ELEMENT FINAL_PART-1.889 IS DISTORTING EXCESSIVELY.
   ELEMENT FINAL_PART-1.891 IS DISTORTING EXCESSIVELY.
   ELEMENT FINAL_PART-1.892 IS DISTORTING EXCESSIVELY.
   ELEMENT FINAL_PART-1.893 IS DISTORTING EXCESSIVELY.
   ELEMENT FINAL_PART-1.894 IS DISTORTING EXCESSIVELY.
   ELEMENT FINAL_PART-1.895 IS DISTORTING EXCESSIVELY.
   ELEMENT FINAL_PART-1.896 IS DISTORTING EXCESSIVELY.
   ELEMENT FINAL_PART-1.897 IS DISTORTING EXCESSIVELY.
   ELEMENT FINAL_PART-1.902 IS DISTORTING EXCESSIVELY.
   ELEMENT FINAL_PART-1.904 IS DISTORTING EXCESSIVELY.
   ELEMENT FINAL_PART-1.905 IS DISTORTING EXCESSIVELY.
   ELEMENT FINAL_PART-1.906 IS DISTORTING EXCESSIVELY.
   ELEMENT FINAL_PART-1.907 IS DISTORTING EXCESSIVELY.
   ELEMENT FINAL_PART-1.910 IS DISTORTING EXCESSIVELY.
   ELEMENT FINAL_PART-1.912 IS DISTORTING EXCESSIVELY.
   ELEMENT FINAL_PART-1.913 IS DISTORTING EXCESSIVELY.
   ELEMENT FINAL_PART-1.914 IS DISTORTING EXCESSIVELY.
   ELEMENT FINAL_PART-1.916 IS DISTORTING EXCESSIVELY.
   ELEMENT FINAL_PART-1.917 IS DISTORTING EXCESSIVELY.
   ELEMENT FINAL_PART-1.918 IS DISTORTING EXCESSIVELY.
   ELEMENT FINAL_PART-1.920 IS DISTORTING EXCESSIVELY.
   ELEMENT FINAL_PART-1.922 IS DISTORTING EXCESSIVELY.
   ELEMENT FINAL_PART-1.925 IS DISTORTING EXCESSIVELY.
   ELEMENT FINAL_PART-1.926 IS DISTORTING EXCESSIVELY.
   ELEMENT FINAL_PART-1.928 IS DISTORTING EXCESSIVELY.
   ELEMENT FINAL_PART-1.929 IS DISTORTING EXCESSIVELY.
   ELEMENT FINAL_PART-1.930 IS DISTORTING EXCESSIVELY.
   ELEMENT FINAL_PART-1.932 IS DISTORTING EXCESSIVELY.
   ELEMENT FINAL_PART-1.934 IS DISTORTING EXCESSIVELY.
   ELEMENT FINAL_PART-1.935 IS DISTORTING EXCESSIVELY.
   ELEMENT FINAL_PART-1.936 IS DISTORTING EXCESSIVELY.
   ELEMENT FINAL_PART-1.937 IS DISTORTING EXCESSIVELY.
   ELEMENT FINAL_PART-1.938 IS DISTORTING EXCESSIVELY.
   ELEMENT FINAL_PART-1.941 IS DISTORTING EXCESSIVELY.
   ELEMENT FINAL_PART-1.947 IS DISTORTING EXCESSIVELY.
   ELEMENT FINAL_PART-1.948 IS DISTORTING EXCESSIVELY.
   ELEMENT FINAL_PART-1.949 IS DISTORTING EXCESSIVELY.
   ELEMENT FINAL_PART-1.950 IS DISTORTING EXCESSIVELY.
   ELEMENT FINAL_PART-1.955 IS DISTORTING EXCESSIVELY.
   ELEMENT FINAL_PART-1.957 IS DISTORTING EXCESSIVELY.
   ELEMENT FINAL_PART-1.964 IS DISTORTING EXCESSIVELY.
   ELEMENT FINAL_PART-1.968 IS DISTORTING EXCESSIVELY.
   ELEMENT FINAL_PART-1.970 IS DISTORTING EXCESSIVELY.
   ELEMENT FINAL_PART-1.971 IS DISTORTING EXCESSIVELY.
   ELEMENT FINAL_PART-1.972 IS DISTORTING EXCESSIVELY.
   ELEMENT FINAL_PART-1.974 IS DISTORTING EXCESSIVELY.
   ELEMENT FINAL_PART-1.976 IS DISTORTING EXCESSIVELY.
   ELEMENT FINAL_PART-1.977 IS DISTORTING EXCESSIVELY.
   ELEMENT FINAL_PART-1.980 IS DISTORTING EXCESSIVELY.
   ELEMENT FINAL_PART-1.981 IS DISTORTING EXCESSIVELY.
   ELEMENT FINAL_PART-1.983 IS DISTORTING EXCESSIVELY.
   ELEMENT FINAL_PART-1.984 IS DISTORTING EXCESSIVELY.
   ELEMENT FINAL_PART-1.987 IS DISTORTING EXCESSIVELY.
   ELEMENT FINAL_PART-1.988 IS DISTORTING EXCESSIVELY.
   ELEMENT FINAL_PART-1.989 IS DISTORTING EXCESSIVELY.
   ELEMENT FINAL_PART-1.990 IS DISTORTING EXCESSIVELY.
   ELEMENT FINAL_PART-1.991 IS DISTORTING EXCESSIVELY.
   ELEMENT FINAL_PART-1.992 IS DISTORTING EXCESSIVELY.
   ELEMENT FINAL_PART-1.996 IS DISTORTING EXCESSIVELY.
   ELEMENT FINAL_PART-1.997 IS DISTORTING EXCESSIVELY.
   ELEMENT FINAL_PART-1.999 IS DISTORTING EXCESSIVELY.
   ELEMENT FINAL_PART-1.1000 IS DISTORTING EXCESSIVELY.
   ELEMENT FINAL_PART-1.1001 IS DISTORTING EXCESSIVELY.
   ELEMENT FINAL_PART-1.1002 IS DISTORTING EXCESSIVELY.
   ELEMENT FINAL_PART-1.1003 IS DISTORTING EXCESSIVELY.
   ELEMENT FINAL_PART-1.1004 IS DISTORTING EXCESSIVELY.
   ELEMENT FINAL_PART-1.1006 IS DISTORTING EXCESSIVELY.
   ELEMENT FINAL_PART-1.1014 IS DISTORTING EXCESSIVELY.
   ELEMENT FINAL_PART-1.1015 IS DISTORTING EXCESSIVELY.
   ELEMENT FINAL_PART-1.1017 IS DISTORTING EXCESSIVELY.
   ELEMENT FINAL_PART-1.1018 IS DISTORTING EXCESSIVELY.
   ELEMENT FINAL_PART-1.1021 IS DISTORTING EXCESSIVELY.
   ELEMENT FINAL_PART-1.1025 IS DISTORTING EXCESSIVELY.
   ELEMENT FINAL_PART-1.1026 IS DISTORTING EXCESSIVELY.
   ELEMENT FINAL_PART-1.1028 IS DISTORTING EXCESSIVELY.
   ELEMENT FINAL_PART-1.1030 IS DISTORTING EXCESSIVELY.
   ELEMENT FINAL_PART-1.1031 IS DISTORTING EXCESSIVELY.
   ELEMENT FINAL_PART-1.1032 IS DISTORTING EXCESSIVELY.
   ELEMENT FINAL_PART-1.1033 IS DISTORTING EXCESSIVELY.
   ELEMENT FINAL_PART-1.1034 IS DISTORTING EXCESSIVELY.
   ELEMENT FINAL_PART-1.1035 IS DISTORTING EXCESSIVELY.
   ELEMENT FINAL_PART-1.1037 IS DISTORTING EXCESSIVELY.
   ELEMENT FINAL_PART-1.1039 IS DISTORTING EXCESSIVELY.
   ELEMENT FINAL_PART-1.1040 IS DISTORTING EXCESSIVELY.
   ELEMENT FINAL_PART-1.1041 IS DISTORTING EXCESSIVELY.
   ELEMENT FINAL_PART-1.1043 IS DISTORTING EXCESSIVELY.
   ELEMENT FINAL_PART-1.1046 IS DISTORTING EXCESSIVELY.
   ELEMENT FINAL_PART-1.1047 IS DISTORTING EXCESSIVELY.
   ELEMENT FINAL_PART-1.1048 IS DISTORTING EXCESSIVELY.
   ELEMENT FINAL_PART-1.1049 IS DISTORTING EXCESSIVELY.
   ELEMENT FINAL_PART-1.1053 IS DISTORTING EXCESSIVELY.
   ELEMENT FINAL_PART-1.1054 IS DISTORTING EXCESSIVELY.
   ELEMENT FINAL_PART-1.1056 IS DISTORTING EXCESSIVELY.
   ELEMENT FINAL_PART-1.1057 IS DISTORTING EXCESSIVELY.
   ELEMENT FINAL_PART-1.1059 IS DISTORTING EXCESSIVELY.
   ELEMENT FINAL_PART-1.1060 IS DISTORTING EXCESSIVELY.
   ELEMENT FINAL_PART-1.1067 IS DISTORTING EXCESSIVELY.
   ELEMENT FINAL_PART-1.1068 IS DISTORTING EXCESSIVELY.
   ELEMENT FINAL_PART-1.1069 IS DISTORTING EXCESSIVELY.
   ELEMENT FINAL_PART-1.1072 IS DISTORTING EXCESSIVELY.
   ELEMENT FINAL_PART-1.1075 IS DISTORTING EXCESSIVELY.
   ELEMENT FINAL_PART-1.1081 IS DISTORTING EXCESSIVELY.
   ELEMENT FINAL_PART-1.1082 IS DISTORTING EXCESSIVELY.
   ELEMENT FINAL_PART-1.1083 IS DISTORTING EXCESSIVELY.
   ELEMENT FINAL_PART-1.1084 IS DISTORTING EXCESSIVELY.
   ELEMENT FINAL_PART-1.1085 IS DISTORTING EXCESSIVELY.
   ELEMENT FINAL_PART-1.1086 IS DISTORTING EXCESSIVELY.
   ELEMENT FINAL_PART-1.1087 IS DISTORTING EXCESSIVELY.
   ELEMENT FINAL_PART-1.1093 IS DISTORTING EXCESSIVELY.
   ELEMENT FINAL_PART-1.1095 IS DISTORTING EXCESSIVELY.
   ELEMENT FINAL_PART-1.1096 IS DISTORTING EXCESSIVELY.
   ELEMENT FINAL_PART-1.1097 IS DISTORTING EXCESSIVELY.
   ELEMENT FINAL_PART-1.1100 IS DISTORTING EXCESSIVELY.
   ELEMENT FINAL_PART-1.1103 IS DISTORTING EXCESSIVELY.
   ELEMENT FINAL_PART-1.1104 IS DISTORTING EXCESSIVELY.
   ELEMENT FINAL_PART-1.1106 IS DISTORTING EXCESSIVELY.
   ELEMENT FINAL_PART-1.1107 IS DISTORTING EXCESSIVELY.
   ELEMENT FINAL_PART-1.1109 IS DISTORTING EXCESSIVELY.
   ELEMENT FINAL_PART-1.1110 IS DISTORTING EXCESSIVELY.
   ELEMENT FINAL_PART-1.1113 IS DISTORTING EXCESSIVELY.
   ELEMENT FINAL_PART-1.1114 IS DISTORTING EXCESSIVELY.
   ELEMENT FINAL_PART-1.1116 IS DISTORTING EXCESSIVELY.
   ELEMENT FINAL_PART-1.1117 IS DISTORTING EXCESSIVELY.
   ELEMENT FINAL_PART-1.1118 IS DISTORTING EXCESSIVELY.
   ELEMENT FINAL_PART-1.1119 IS DISTORTING EXCESSIVELY.
   ELEMENT FINAL_PART-1.1122 IS DISTORTING EXCESSIVELY.
   ELEMENT FINAL_PART-1.1124 IS DISTORTING EXCESSIVELY.
   ELEMENT FINAL_PART-1.1125 IS DISTORTING EXCESSIVELY.
   ELEMENT FINAL_PART-1.1126 IS DISTORTING EXCESSIVELY.
   ELEMENT FINAL_PART-1.1127 IS DISTORTING EXCESSIVELY.
   ELEMENT FINAL_PART-1.1129 IS DISTORTING EXCESSIVELY.
   ELEMENT FINAL_PART-1.1130 IS DISTORTING EXCESSIVELY.
   ELEMENT FINAL_PART-1.1132 IS DISTORTING EXCESSIVELY.
   ELEMENT FINAL_PART-1.1137 IS DISTORTING EXCESSIVELY.
   ELEMENT FINAL_PART-1.1138 IS DISTORTING EXCESSIVELY.
   ELEMENT FINAL_PART-1.1139 IS DISTORTING EXCESSIVELY.
   ELEMENT FINAL_PART-1.1140 IS DISTORTING EXCESSIVELY.
   ELEMENT FINAL_PART-1.1141 IS DISTORTING EXCESSIVELY.
   ELEMENT FINAL_PART-1.1143 IS DISTORTING EXCESSIVELY.
   ELEMENT FINAL_PART-1.1144 IS DISTORTING EXCESSIVELY.
   ELEMENT FINAL_PART-1.1145 IS DISTORTING EXCESSIVELY.
   ELEMENT FINAL_PART-1.1147 IS DISTORTING EXCESSIVELY.
   ELEMENT FINAL_PART-1.1150 IS DISTORTING EXCESSIVELY.
   ELEMENT FINAL_PART-1.1151 IS DISTORTING EXCESSIVELY.
   ELEMENT FINAL_PART-1.1152 IS DISTORTING EXCESSIVELY.
   ELEMENT FINAL_PART-1.1153 IS DISTORTING EXCESSIVELY.
   ELEMENT FINAL_PART-1.1154 IS DISTORTING EXCESSIVELY.
   ELEMENT FINAL_PART-1.1155 IS DISTORTING EXCESSIVELY.
   ELEMENT FINAL_PART-1.1158 IS DISTORTING EXCESSIVELY.
   ELEMENT FINAL_PART-1.1159 IS DISTORTING EXCESSIVELY.
   ELEMENT FINAL_PART-1.1160 IS DISTORTING EXCESSIVELY.
   ELEMENT FINAL_PART-1.1162 IS DISTORTING EXCESSIVELY.
   ELEMENT FINAL_PART-1.1165 IS DISTORTING EXCESSIVELY.
   ELEMENT FINAL_PART-1.1168 IS DISTORTING EXCESSIVELY.
   ELEMENT FINAL_PART-1.1170 IS DISTORTING EXCESSIVELY.
   ELEMENT FINAL_PART-1.1172 IS DISTORTING EXCESSIVELY.
   ELEMENT FINAL_PART-1.1173 IS DISTORTING EXCESSIVELY.
   ELEMENT FINAL_PART-1.1174 IS DISTORTING EXCESSIVELY.
   ELEMENT FINAL_PART-1.1175 IS DISTORTING EXCESSIVELY.
   ELEMENT FINAL_PART-1.1178 IS DISTORTING EXCESSIVELY.
   ELEMENT FINAL_PART-1.1180 IS DISTORTING EXCESSIVELY.
   ELEMENT FINAL_PART-1.1181 IS DISTORTING EXCESSIVELY.
   ELEMENT FINAL_PART-1.1183 IS DISTORTING EXCESSIVELY.
   ELEMENT FINAL_PART-1.1185 IS DISTORTING EXCESSIVELY.
   ELEMENT FINAL_PART-1.1186 IS DISTORTING EXCESSIVELY.
   ELEMENT FINAL_PART-1.1188 IS DISTORTING EXCESSIVELY.
   ELEMENT FINAL_PART-1.1189 IS DISTORTING EXCESSIVELY.
   ELEMENT FINAL_PART-1.1190 IS DISTORTING EXCESSIVELY.
   ELEMENT FINAL_PART-1.1191 IS DISTORTING EXCESSIVELY.
   ELEMENT FINAL_PART-1.1192 IS DISTORTING EXCESSIVELY.
   ELEMENT FINAL_PART-1.1193 IS DISTORTING EXCESSIVELY.
   ELEMENT FINAL_PART-1.1194 IS DISTORTING EXCESSIVELY.
   ELEMENT FINAL_PART-1.1197 IS DISTORTING EXCESSIVELY.
   ELEMENT FINAL_PART-1.1199 IS DISTORTING EXCESSIVELY.
   ELEMENT FINAL_PART-1.1200 IS DISTORTING EXCESSIVELY.
   ELEMENT FINAL_PART-1.1201 IS DISTORTING EXCESSIVELY.
   ELEMENT FINAL_PART-1.1202 IS DISTORTING EXCESSIVELY.
   ELEMENT FINAL_PART-1.1203 IS DISTORTING EXCESSIVELY.
   ELEMENT FINAL_PART-1.1205 IS DISTORTING EXCESSIVELY.
   ELEMENT FINAL_PART-1.1206 IS DISTORTING EXCESSIVELY.
   ELEMENT FINAL_PART-1.1207 IS DISTORTING EXCESSIVELY.
   ELEMENT FINAL_PART-1.1208 IS DISTORTING EXCESSIVELY.
   ELEMENT FINAL_PART-1.1209 IS DISTORTING EXCESSIVELY.
   ELEMENT FINAL_PART-1.1210 IS DISTORTING EXCESSIVELY.
   ELEMENT FINAL_PART-1.1212 IS DISTORTING EXCESSIVELY.
   ELEMENT FINAL_PART-1.1213 IS DISTORTING EXCESSIVELY.
   ELEMENT FINAL_PART-1.1214 IS DISTORTING EXCESSIVELY.
   ELEMENT FINAL_PART-1.1217 IS DISTORTING EXCESSIVELY.
   ELEMENT FINAL_PART-1.1218 IS DISTORTING EXCESSIVELY.
   ELEMENT FINAL_PART-1.1219 IS DISTORTING EXCESSIVELY.
   ELEMENT FINAL_PART-1.1221 IS DISTORTING EXCESSIVELY.
   ELEMENT FINAL_PART-1.1224 IS DISTORTING EXCESSIVELY.
   ELEMENT FINAL_PART-1.1225 IS DISTORTING EXCESSIVELY.
   ELEMENT FINAL_PART-1.1227 IS DISTORTING EXCESSIVELY.
   ELEMENT FINAL_PART-1.1231 IS DISTORTING EXCESSIVELY.
   ELEMENT FINAL_PART-1.1232 IS DISTORTING EXCESSIVELY.
   ELEMENT FINAL_PART-1.1235 IS DISTORTING EXCESSIVELY.
   ELEMENT FINAL_PART-1.1238 IS DISTORTING EXCESSIVELY.
   ELEMENT FINAL_PART-1.1243 IS DISTORTING EXCESSIVELY.
   ELEMENT FINAL_PART-1.1244 IS DISTORTING EXCESSIVELY.
   ELEMENT FINAL_PART-1.1245 IS DISTORTING EXCESSIVELY.
   ELEMENT FINAL_PART-1.1248 IS DISTORTING EXCESSIVELY.
   ELEMENT FINAL_PART-1.1249 IS DISTORTING EXCESSIVELY.
   ELEMENT FINAL_PART-1.1251 IS DISTORTING EXCESSIVELY.
   ELEMENT FINAL_PART-1.1252 IS DISTORTING EXCESSIVELY.
   ELEMENT FINAL_PART-1.1254 IS DISTORTING EXCESSIVELY.
   ELEMENT FINAL_PART-1.1255 IS DISTORTING EXCESSIVELY.
   ELEMENT FINAL_PART-1.1258 IS DISTORTING EXCESSIVELY.
   ELEMENT FINAL_PART-1.1261 IS DISTORTING EXCESSIVELY.
   ELEMENT FINAL_PART-1.1265 IS DISTORTING EXCESSIVELY.
   ELEMENT FINAL_PART-1.1266 IS DISTORTING EXCESSIVELY.
   ELEMENT FINAL_PART-1.1268 IS DISTORTING EXCESSIVELY.
   ELEMENT FINAL_PART-1.1269 IS DISTORTING EXCESSIVELY.
   ELEMENT FINAL_PART-1.1273 IS DISTORTING EXCESSIVELY.
   ELEMENT FINAL_PART-1.1274 IS DISTORTING EXCESSIVELY.
   ELEMENT FINAL_PART-1.1275 IS DISTORTING EXCESSIVELY.
   ELEMENT FINAL_PART-1.1276 IS DISTORTING EXCESSIVELY.
   ELEMENT FINAL_PART-1.1277 IS DISTORTING EXCESSIVELY.
   ELEMENT FINAL_PART-1.1278 IS DISTORTING EXCESSIVELY.
   ELEMENT FINAL_PART-1.1279 IS DISTORTING EXCESSIVELY.
   ELEMENT FINAL_PART-1.1280 IS DISTORTING EXCESSIVELY.
   ELEMENT FINAL_PART-1.1281 IS DISTORTING EXCESSIVELY.
   ELEMENT FINAL_PART-1.1283 IS DISTORTING EXCESSIVELY.
   ELEMENT FINAL_PART-1.1284 IS DISTORTING EXCESSIVELY.
   ELEMENT FINAL_PART-1.1285 IS DISTORTING EXCESSIVELY.
   ELEMENT FINAL_PART-1.1286 IS DISTORTING EXCESSIVELY.
   ELEMENT FINAL_PART-1.1288 IS DISTORTING EXCESSIVELY.
   ELEMENT FINAL_PART-1.1289 IS DISTORTING EXCESSIVELY.
   ELEMENT FINAL_PART-1.1296 IS DISTORTING EXCESSIVELY.
   ELEMENT FINAL_PART-1.1299 IS DISTORTING EXCESSIVELY.
   ELEMENT FINAL_PART-1.1301 IS DISTORTING EXCESSIVELY.
   ELEMENT FINAL_PART-1.1302 IS DISTORTING EXCESSIVELY.
   ELEMENT FINAL_PART-1.1304 IS DISTORTING EXCESSIVELY.
   ELEMENT FINAL_PART-1.1306 IS DISTORTING EXCESSIVELY.
   ELEMENT FINAL_PART-1.1309 IS DISTORTING EXCESSIVELY.
   ELEMENT FINAL_PART-1.1310 IS DISTORTING EXCESSIVELY.
   ELEMENT FINAL_PART-1.1311 IS DISTORTING EXCESSIVELY.
   ELEMENT FINAL_PART-1.1312 IS DISTORTING EXCESSIVELY.
   ELEMENT FINAL_PART-1.1313 IS DISTORTING EXCESSIVELY.
   ELEMENT FINAL_PART-1.1314 IS DISTORTING EXCESSIVELY.
   ELEMENT FINAL_PART-1.1316 IS DISTORTING EXCESSIVELY.
   ELEMENT FINAL_PART-1.1317 IS DISTORTING EXCESSIVELY.
   ELEMENT FINAL_PART-1.1320 IS DISTORTING EXCESSIVELY.
   ELEMENT FINAL_PART-1.1324 IS DISTORTING EXCESSIVELY.
   ELEMENT FINAL_PART-1.1326 IS DISTORTING EXCESSIVELY.
   ELEMENT FINAL_PART-1.1327 IS DISTORTING EXCESSIVELY.
   ELEMENT FINAL_PART-1.1329 IS DISTORTING EXCESSIVELY.
   ELEMENT FINAL_PART-1.1331 IS DISTORTING EXCESSIVELY.
   ELEMENT FINAL_PART-1.1332 IS DISTORTING EXCESSIVELY.
   ELEMENT FINAL_PART-1.1334 IS DISTORTING EXCESSIVELY.
   ELEMENT FINAL_PART-1.1335 IS DISTORTING EXCESSIVELY.
   ELEMENT FINAL_PART-1.1336 IS DISTORTING EXCESSIVELY.
   ELEMENT FINAL_PART-1.1337 IS DISTORTING EXCESSIVELY.
   ELEMENT FINAL_PART-1.1338 IS DISTORTING EXCESSIVELY.
   ELEMENT FINAL_PART-1.1339 IS DISTORTING EXCESSIVELY.
   ELEMENT FINAL_PART-1.1340 IS DISTORTING EXCESSIVELY.
   ELEMENT FINAL_PART-1.1341 IS DISTORTING EXCESSIVELY.
   ELEMENT FINAL_PART-1.1342 IS DISTORTING EXCESSIVELY.
   ELEMENT FINAL_PART-1.1343 IS DISTORTING EXCESSIVELY.
   ELEMENT FINAL_PART-1.1345 IS DISTORTING EXCESSIVELY.
   ELEMENT FINAL_PART-1.1348 IS DISTORTING EXCESSIVELY.
   ELEMENT FINAL_PART-1.1350 IS DISTORTING EXCESSIVELY.
   ELEMENT FINAL_PART-1.1351 IS DISTORTING EXCESSIVELY.
   ELEMENT FINAL_PART-1.1355 IS DISTORTING EXCESSIVELY.
   ELEMENT FINAL_PART-1.1357 IS DISTORTING EXCESSIVELY.
   ELEMENT FINAL_PART-1.1359 IS DISTORTING EXCESSIVELY.
   ELEMENT FINAL_PART-1.1360 IS DISTORTING EXCESSIVELY.
   ELEMENT FINAL_PART-1.1362 IS DISTORTING EXCESSIVELY.
   ELEMENT FINAL_PART-1.1364 IS DISTORTING EXCESSIVELY.
   ELEMENT FINAL_PART-1.1366 IS DISTORTING EXCESSIVELY.
   ELEMENT FINAL_PART-1.1369 IS DISTORTING EXCESSIVELY.
   ELEMENT FINAL_PART-1.1370 IS DISTORTING EXCESSIVELY.
   ELEMENT FINAL_PART-1.1373 IS DISTORTING EXCESSIVELY.
   ELEMENT FINAL_PART-1.1376 IS DISTORTING EXCESSIVELY.
   ELEMENT FINAL_PART-1.1379 IS DISTORTING EXCESSIVELY.
   ELEMENT FINAL_PART-1.1382 IS DISTORTING EXCESSIVELY.
   ELEMENT FINAL_PART-1.1383 IS DISTORTING EXCESSIVELY.
   ELEMENT FINAL_PART-1.1384 IS DISTORTING EXCESSIVELY.
   ELEMENT FINAL_PART-1.1385 IS DISTORTING EXCESSIVELY.
   ELEMENT FINAL_PART-1.1386 IS DISTORTING EXCESSIVELY.
   ELEMENT FINAL_PART-1.1387 IS DISTORTING EXCESSIVELY.
   ELEMENT FINAL_PART-1.1389 IS DISTORTING EXCESSIVELY.
   ELEMENT FINAL_PART-1.1390 IS DISTORTING EXCESSIVELY.
   ELEMENT FINAL_PART-1.1391 IS DISTORTING EXCESSIVELY.
   ELEMENT FINAL_PART-1.1392 IS DISTORTING EXCESSIVELY.
   ELEMENT FINAL_PART-1.1393 IS DISTORTING EXCESSIVELY.
   ELEMENT FINAL_PART-1.1394 IS DISTORTING EXCESSIVELY.
   ELEMENT FINAL_PART-1.1397 IS DISTORTING EXCESSIVELY.
   ELEMENT FINAL_PART-1.1399 IS DISTORTING EXCESSIVELY.
   ELEMENT FINAL_PART-1.1401 IS DISTORTING EXCESSIVELY.
   ELEMENT FINAL_PART-1.1403 IS DISTORTING EXCESSIVELY.
   ELEMENT FINAL_PART-1.1404 IS DISTORTING EXCESSIVELY.
   ELEMENT FINAL_PART-1.1406 IS DISTORTING EXCESSIVELY.
   ELEMENT FINAL_PART-1.1408 IS DISTORTING EXCESSIVELY.
   ELEMENT FINAL_PART-1.1411 IS DISTORTING EXCESSIVELY.
   ELEMENT FINAL_PART-1.1413 IS DISTORTING EXCESSIVELY.
   ELEMENT FINAL_PART-1.1415 IS DISTORTING EXCESSIVELY.
   ELEMENT FINAL_PART-1.1417 IS DISTORTING EXCESSIVELY.
   ELEMENT FINAL_PART-1.1419 IS DISTORTING EXCESSIVELY.
   ELEMENT FINAL_PART-1.1420 IS DISTORTING EXCESSIVELY.
   ELEMENT FINAL_PART-1.1421 IS DISTORTING EXCESSIVELY.
   ELEMENT FINAL_PART-1.1422 IS DISTORTING EXCESSIVELY.
   ELEMENT FINAL_PART-1.1429 IS DISTORTING EXCESSIVELY.
   ELEMENT FINAL_PART-1.1431 IS DISTORTING EXCESSIVELY.
   ELEMENT FINAL_PART-1.1434 IS DISTORTING EXCESSIVELY.
   ELEMENT FINAL_PART-1.1436 IS DISTORTING EXCESSIVELY.
   ELEMENT FINAL_PART-1.1437 IS DISTORTING EXCESSIVELY.
   ELEMENT FINAL_PART-1.1438 IS DISTORTING EXCESSIVELY.
   ELEMENT FINAL_PART-1.1441 IS DISTORTING EXCESSIVELY.
   ELEMENT FINAL_PART-1.1444 IS DISTORTING EXCESSIVELY.
   ELEMENT FINAL_PART-1.1445 IS DISTORTING EXCESSIVELY.
   ELEMENT FINAL_PART-1.1449 IS DISTORTING EXCESSIVELY.
   ELEMENT FINAL_PART-1.1450 IS DISTORTING EXCESSIVELY.
   ELEMENT FINAL_PART-1.1451 IS DISTORTING EXCESSIVELY.
   ELEMENT FINAL_PART-1.1452 IS DISTORTING EXCESSIVELY.
   ELEMENT FINAL_PART-1.1453 IS DISTORTING EXCESSIVELY.
   ELEMENT FINAL_PART-1.1457 IS DISTORTING EXCESSIVELY.
   ELEMENT FINAL_PART-1.1458 IS DISTORTING EXCESSIVELY.
   ELEMENT FINAL_PART-1.1459 IS DISTORTING EXCESSIVELY.
   ELEMENT FINAL_PART-1.1460 IS DISTORTING EXCESSIVELY.
   ELEMENT FINAL_PART-1.1461 IS DISTORTING EXCESSIVELY.
   ELEMENT FINAL_PART-1.1463 IS DISTORTING EXCESSIVELY.
   ELEMENT FINAL_PART-1.1464 IS DISTORTING EXCESSIVELY.
   ELEMENT FINAL_PART-1.1465 IS DISTORTING EXCESSIVELY.
   ELEMENT FINAL_PART-1.1467 IS DISTORTING EXCESSIVELY.
   ELEMENT FINAL_PART-1.1470 IS DISTORTING EXCESSIVELY.
   ELEMENT FINAL_PART-1.1472 IS DISTORTING EXCESSIVELY.
   ELEMENT FINAL_PART-1.1473 IS DISTORTING EXCESSIVELY.
   ELEMENT FINAL_PART-1.1475 IS DISTORTING EXCESSIVELY.
   ELEMENT FINAL_PART-1.1478 IS DISTORTING EXCESSIVELY.
   ELEMENT FINAL_PART-1.1479 IS DISTORTING EXCESSIVELY.
   ELEMENT FINAL_PART-1.1482 IS DISTORTING EXCESSIVELY.
   ELEMENT FINAL_PART-1.1483 IS DISTORTING EXCESSIVELY.
   ELEMENT FINAL_PART-1.1485 IS DISTORTING EXCESSIVELY.
   ELEMENT FINAL_PART-1.1486 IS DISTORTING EXCESSIVELY.
   ELEMENT FINAL_PART-1.1491 IS DISTORTING EXCESSIVELY.
   ELEMENT FINAL_PART-1.1492 IS DISTORTING EXCESSIVELY.
   ELEMENT FINAL_PART-1.1494 IS DISTORTING EXCESSIVELY.
   ELEMENT FINAL_PART-1.1495 IS DISTORTING EXCESSIVELY.
   ELEMENT FINAL_PART-1.1498 IS DISTORTING EXCESSIVELY.
   ELEMENT FINAL_PART-1.1500 IS DISTORTING EXCESSIVELY.
   ELEMENT FINAL_PART-1.1501 IS DISTORTING EXCESSIVELY.
   ELEMENT FINAL_PART-1.1503 IS DISTORTING EXCESSIVELY.
   ELEMENT FINAL_PART-1.1504 IS DISTORTING EXCESSIVELY.
   ELEMENT FINAL_PART-1.1506 IS DISTORTING EXCESSIVELY.
   ELEMENT FINAL_PART-1.1510 IS DISTORTING EXCESSIVELY.
   ELEMENT FINAL_PART-1.1511 IS DISTORTING EXCESSIVELY.
   ELEMENT FINAL_PART-1.1513 IS DISTORTING EXCESSIVELY.
   ELEMENT FINAL_PART-1.1515 IS DISTORTING EXCESSIVELY.
   ELEMENT FINAL_PART-1.1518 IS DISTORTING EXCESSIVELY.
   ELEMENT FINAL_PART-1.1519 IS DISTORTING EXCESSIVELY.
   ELEMENT FINAL_PART-1.1520 IS DISTORTING EXCESSIVELY.
   ELEMENT FINAL_PART-1.1521 IS DISTORTING EXCESSIVELY.
   ELEMENT FINAL_PART-1.1522 IS DISTORTING EXCESSIVELY.
   ELEMENT FINAL_PART-1.1525 IS DISTORTING EXCESSIVELY.
   ELEMENT FINAL_PART-1.1526 IS DISTORTING EXCESSIVELY.
   ELEMENT FINAL_PART-1.1527 IS DISTORTING EXCESSIVELY.
   ELEMENT FINAL_PART-1.1529 IS DISTORTING EXCESSIVELY.
   ELEMENT FINAL_PART-1.1531 IS DISTORTING EXCESSIVELY.
   ELEMENT FINAL_PART-1.1532 IS DISTORTING EXCESSIVELY.
   ELEMENT FINAL_PART-1.1534 IS DISTORTING EXCESSIVELY.
   ELEMENT FINAL_PART-1.1537 IS DISTORTING EXCESSIVELY.
   ELEMENT FINAL_PART-1.1538 IS DISTORTING EXCESSIVELY.
   ELEMENT FINAL_PART-1.1539 IS DISTORTING EXCESSIVELY.
   ELEMENT FINAL_PART-1.1540 IS DISTORTING EXCESSIVELY.
   ELEMENT FINAL_PART-1.1541 IS DISTORTING EXCESSIVELY.
   ELEMENT FINAL_PART-1.1542 IS DISTORTING EXCESSIVELY.
   ELEMENT FINAL_PART-1.1544 IS DISTORTING EXCESSIVELY.
   ELEMENT FINAL_PART-1.1547 IS DISTORTING EXCESSIVELY.
   ELEMENT FINAL_PART-1.1548 IS DISTORTING EXCESSIVELY.
   ELEMENT FINAL_PART-1.1549 IS DISTORTING EXCESSIVELY.
   ELEMENT FINAL_PART-1.1551 IS DISTORTING EXCESSIVELY.
   ELEMENT FINAL_PART-1.1555 IS DISTORTING EXCESSIVELY.
   ELEMENT FINAL_PART-1.1556 IS DISTORTING EXCESSIVELY.
   ELEMENT FINAL_PART-1.1557 IS DISTORTING EXCESSIVELY.
   ELEMENT FINAL_PART-1.1558 IS DISTORTING EXCESSIVELY.
   ELEMENT FINAL_PART-1.1560 IS DISTORTING EXCESSIVELY.
   ELEMENT FINAL_PART-1.1561 IS DISTORTING EXCESSIVELY.
   ELEMENT FINAL_PART-1.1562 IS DISTORTING EXCESSIVELY.
   ELEMENT FINAL_PART-1.1563 IS DISTORTING EXCESSIVELY.
   ELEMENT FINAL_PART-1.1564 IS DISTORTING EXCESSIVELY.
   ELEMENT FINAL_PART-1.1565 IS DISTORTING EXCESSIVELY.
   ELEMENT FINAL_PART-1.1567 IS DISTORTING EXCESSIVELY.
   ELEMENT FINAL_PART-1.1569 IS DISTORTING EXCESSIVELY.
   ELEMENT FINAL_PART-1.1570 IS DISTORTING EXCESSIVELY.
   ELEMENT FINAL_PART-1.1574 IS DISTORTING EXCESSIVELY.
   ELEMENT FINAL_PART-1.1575 IS DISTORTING EXCESSIVELY.
   ELEMENT FINAL_PART-1.1579 IS DISTORTING EXCESSIVELY.
   ELEMENT FINAL_PART-1.1580 IS DISTORTING EXCESSIVELY.
   ELEMENT FINAL_PART-1.1581 IS DISTORTING EXCESSIVELY.
   ELEMENT FINAL_PART-1.1583 IS DISTORTING EXCESSIVELY.
   ELEMENT FINAL_PART-1.1585 IS DISTORTING EXCESSIVELY.
   ELEMENT FINAL_PART-1.1586 IS DISTORTING EXCESSIVELY.
   ELEMENT FINAL_PART-1.1587 IS DISTORTING EXCESSIVELY.
   ELEMENT FINAL_PART-1.1589 IS DISTORTING EXCESSIVELY.
   ELEMENT FINAL_PART-1.1594 IS DISTORTING EXCESSIVELY.
   ELEMENT FINAL_PART-1.1596 IS DISTORTING EXCESSIVELY.
   ELEMENT FINAL_PART-1.1598 IS DISTORTING EXCESSIVELY.
   ELEMENT FINAL_PART-1.1599 IS DISTORTING EXCESSIVELY.
   ELEMENT FINAL_PART-1.1600 IS DISTORTING EXCESSIVELY.
   ELEMENT FINAL_PART-1.1601 IS DISTORTING EXCESSIVELY.
   ELEMENT FINAL_PART-1.1603 IS DISTORTING EXCESSIVELY.
   ELEMENT FINAL_PART-1.1604 IS DISTORTING EXCESSIVELY.
   ELEMENT FINAL_PART-1.1605 IS DISTORTING EXCESSIVELY.
   ELEMENT FINAL_PART-1.1606 IS DISTORTING EXCESSIVELY.
   ELEMENT FINAL_PART-1.1609 IS DISTORTING EXCESSIVELY.
   ELEMENT FINAL_PART-1.1610 IS DISTORTING EXCESSIVELY.
   ELEMENT FINAL_PART-1.1611 IS DISTORTING EXCESSIVELY.
   ELEMENT FINAL_PART-1.1612 IS DISTORTING EXCESSIVELY.
   ELEMENT FINAL_PART-1.1613 IS DISTORTING EXCESSIVELY.
   ELEMENT FINAL_PART-1.1616 IS DISTORTING EXCESSIVELY.
   ELEMENT FINAL_PART-1.1617 IS DISTORTING EXCESSIVELY.
   ELEMENT FINAL_PART-1.1619 IS DISTORTING EXCESSIVELY.
   ELEMENT FINAL_PART-1.1620 IS DISTORTING EXCESSIVELY.
   ELEMENT FINAL_PART-1.1623 IS DISTORTING EXCESSIVELY.
   ELEMENT FINAL_PART-1.1625 IS DISTORTING EXCESSIVELY.
   ELEMENT FINAL_PART-1.1626 IS DISTORTING EXCESSIVELY.
   ELEMENT FINAL_PART-1.1627 IS DISTORTING EXCESSIVELY.
   ELEMENT FINAL_PART-1.1628 IS DISTORTING EXCESSIVELY.
   ELEMENT FINAL_PART-1.1629 IS DISTORTING EXCESSIVELY.
   ELEMENT FINAL_PART-1.1630 IS DISTORTING EXCESSIVELY.
   ELEMENT FINAL_PART-1.1631 IS DISTORTING EXCESSIVELY.
   ELEMENT FINAL_PART-1.1632 IS DISTORTING EXCESSIVELY.
   ELEMENT FINAL_PART-1.1633 IS DISTORTING EXCESSIVELY.
   ELEMENT FINAL_PART-1.1634 IS DISTORTING EXCESSIVELY.
   ELEMENT FINAL_PART-1.1639 IS DISTORTING EXCESSIVELY.
   ELEMENT FINAL_PART-1.1641 IS DISTORTING EXCESSIVELY.
   ELEMENT FINAL_PART-1.1642 IS DISTORTING EXCESSIVELY.
   ELEMENT FINAL_PART-1.1646 IS DISTORTING EXCESSIVELY.
   ELEMENT FINAL_PART-1.1648 IS DISTORTING EXCESSIVELY.
   ELEMENT FINAL_PART-1.1651 IS DISTORTING EXCESSIVELY.
   ELEMENT FINAL_PART-1.1652 IS DISTORTING EXCESSIVELY.
   ELEMENT FINAL_PART-1.1653 IS DISTORTING EXCESSIVELY.
   ELEMENT FINAL_PART-1.1654 IS DISTORTING EXCESSIVELY.
   ELEMENT FINAL_PART-1.1658 IS DISTORTING EXCESSIVELY.
   ELEMENT FINAL_PART-1.1659 IS DISTORTING EXCESSIVELY.
   ELEMENT FINAL_PART-1.1660 IS DISTORTING EXCESSIVELY.
   ELEMENT FINAL_PART-1.1661 IS DISTORTING EXCESSIVELY.
   ELEMENT FINAL_PART-1.1665 IS DISTORTING EXCESSIVELY.
   ELEMENT FINAL_PART-1.1666 IS DISTORTING EXCESSIVELY.
   ELEMENT FINAL_PART-1.1668 IS DISTORTING EXCESSIVELY.
   ELEMENT FINAL_PART-1.1669 IS DISTORTING EXCESSIVELY.
   ELEMENT FINAL_PART-1.1673 IS DISTORTING EXCESSIVELY.
   ELEMENT FINAL_PART-1.1674 IS DISTORTING EXCESSIVELY.
   ELEMENT FINAL_PART-1.1679 IS DISTORTING EXCESSIVELY.
   ELEMENT FINAL_PART-1.1682 IS DISTORTING EXCESSIVELY.
   ELEMENT FINAL_PART-1.1684 IS DISTORTING EXCESSIVELY.
   ELEMENT FINAL_PART-1.1685 IS DISTORTING EXCESSIVELY.
   ELEMENT FINAL_PART-1.1686 IS DISTORTING EXCESSIVELY.
   ELEMENT FINAL_PART-1.1689 IS DISTORTING EXCESSIVELY.
   ELEMENT FINAL_PART-1.1692 IS DISTORTING EXCESSIVELY.
   ELEMENT FINAL_PART-1.1693 IS DISTORTING EXCESSIVELY.
   ELEMENT FINAL_PART-1.1694 IS DISTORTING EXCESSIVELY.
   ELEMENT FINAL_PART-1.1695 IS DISTORTING EXCESSIVELY.
   ELEMENT FINAL_PART-1.1696 IS DISTORTING EXCESSIVELY.
   ELEMENT FINAL_PART-1.1700 IS DISTORTING EXCESSIVELY.
   ELEMENT FINAL_PART-1.1705 IS DISTORTING EXCESSIVELY.
   ELEMENT FINAL_PART-1.1706 IS DISTORTING EXCESSIVELY.
   ELEMENT FINAL_PART-1.1710 IS DISTORTING EXCESSIVELY.
   ELEMENT FINAL_PART-1.1711 IS DISTORTING EXCESSIVELY.
   ELEMENT FINAL_PART-1.1713 IS DISTORTING EXCESSIVELY.
   ELEMENT FINAL_PART-1.1715 IS DISTORTING EXCESSIVELY.
   ELEMENT FINAL_PART-1.1716 IS DISTORTING EXCESSIVELY.
   ELEMENT FINAL_PART-1.1717 IS DISTORTING EXCESSIVELY.
   ELEMENT FINAL_PART-1.1718 IS DISTORTING EXCESSIVELY.
   ELEMENT FINAL_PART-1.1721 IS DISTORTING EXCESSIVELY.
   ELEMENT FINAL_PART-1.1724 IS DISTORTING EXCESSIVELY.
   ELEMENT FINAL_PART-1.1725 IS DISTORTING EXCESSIVELY.
   ELEMENT FINAL_PART-1.1726 IS DISTORTING EXCESSIVELY.
   ELEMENT FINAL_PART-1.1728 IS DISTORTING EXCESSIVELY.
   ELEMENT FINAL_PART-1.1730 IS DISTORTING EXCESSIVELY.
   ELEMENT FINAL_PART-1.1731 IS DISTORTING EXCESSIVELY.
   ELEMENT FINAL_PART-1.1733 IS DISTORTING EXCESSIVELY.
   ELEMENT FINAL_PART-1.1734 IS DISTORTING EXCESSIVELY.
   ELEMENT FINAL_PART-1.1735 IS DISTORTING EXCESSIVELY.
   ELEMENT FINAL_PART-1.1736 IS DISTORTING EXCESSIVELY.
   ELEMENT FINAL_PART-1.1737 IS DISTORTING EXCESSIVELY.
   ELEMENT FINAL_PART-1.1740 IS DISTORTING EXCESSIVELY.
   ELEMENT FINAL_PART-1.1741 IS DISTORTING EXCESSIVELY.
   ELEMENT FINAL_PART-1.1744 IS DISTORTING EXCESSIVELY.
   ELEMENT FINAL_PART-1.1746 IS DISTORTING EXCESSIVELY.
   ELEMENT FINAL_PART-1.1748 IS DISTORTING EXCESSIVELY.
   ELEMENT FINAL_PART-1.1750 IS DISTORTING EXCESSIVELY.
   ELEMENT FINAL_PART-1.1755 IS DISTORTING EXCESSIVELY.
   ELEMENT FINAL_PART-1.1756 IS DISTORTING EXCESSIVELY.
   ELEMENT FINAL_PART-1.1759 IS DISTORTING EXCESSIVELY.
   ELEMENT FINAL_PART-1.1760 IS DISTORTING EXCESSIVELY.
   ELEMENT FINAL_PART-1.1762 IS DISTORTING EXCESSIVELY.
   ELEMENT FINAL_PART-1.1763 IS DISTORTING EXCESSIVELY.
   ELEMENT FINAL_PART-1.1765 IS DISTORTING EXCESSIVELY.
   ELEMENT FINAL_PART-1.1768 IS DISTORTING EXCESSIVELY.
   ELEMENT FINAL_PART-1.1770 IS DISTORTING EXCESSIVELY.
   ELEMENT FINAL_PART-1.1771 IS DISTORTING EXCESSIVELY.
   ELEMENT FINAL_PART-1.1773 IS DISTORTING EXCESSIVELY.
   ELEMENT FINAL_PART-1.1774 IS DISTORTING EXCESSIVELY.
   ELEMENT FINAL_PART-1.1778 IS DISTORTING EXCESSIVELY.
   ELEMENT FINAL_PART-1.1779 IS DISTORTING EXCESSIVELY.
   ELEMENT FINAL_PART-1.1781 IS DISTORTING EXCESSIVELY.
   ELEMENT FINAL_PART-1.1783 IS DISTORTING EXCESSIVELY.
   ELEMENT FINAL_PART-1.1785 IS DISTORTING EXCESSIVELY.
   ELEMENT FINAL_PART-1.1786 IS DISTORTING EXCESSIVELY.
   ELEMENT FINAL_PART-1.1790 IS DISTORTING EXCESSIVELY.
   ELEMENT FINAL_PART-1.1792 IS DISTORTING EXCESSIVELY.
   ELEMENT FINAL_PART-1.1793 IS DISTORTING EXCESSIVELY.
   ELEMENT FINAL_PART-1.1794 IS DISTORTING EXCESSIVELY.
   ELEMENT FINAL_PART-1.1795 IS DISTORTING EXCESSIVELY.
   ELEMENT FINAL_PART-1.1798 IS DISTORTING EXCESSIVELY.
   ELEMENT FINAL_PART-1.1799 IS DISTORTING EXCESSIVELY.
   ELEMENT FINAL_PART-1.1800 IS DISTORTING EXCESSIVELY.
   ELEMENT FINAL_PART-1.1801 IS DISTORTING EXCESSIVELY.
   ELEMENT FINAL_PART-1.1802 IS DISTORTING EXCESSIVELY.
   ELEMENT FINAL_PART-1.1803 IS DISTORTING EXCESSIVELY.
   ELEMENT FINAL_PART-1.1806 IS DISTORTING EXCESSIVELY.
   ELEMENT FINAL_PART-1.1807 IS DISTORTING EXCESSIVELY.
   ELEMENT FINAL_PART-1.1809 IS DISTORTING EXCESSIVELY.
   ELEMENT FINAL_PART-1.1810 IS DISTORTING EXCESSIVELY.
   ELEMENT FINAL_PART-1.1811 IS DISTORTING EXCESSIVELY.
   ELEMENT FINAL_PART-1.1812 IS DISTORTING EXCESSIVELY.
   ELEMENT FINAL_PART-1.1813 IS DISTORTING EXCESSIVELY.
   ELEMENT FINAL_PART-1.1814 IS DISTORTING EXCESSIVELY.
   ELEMENT FINAL_PART-1.1815 IS DISTORTING EXCESSIVELY.
   ELEMENT FINAL_PART-1.1816 IS DISTORTING EXCESSIVELY.
   ELEMENT FINAL_PART-1.1817 IS DISTORTING EXCESSIVELY.
   ELEMENT FINAL_PART-1.1818 IS DISTORTING EXCESSIVELY.
   ELEMENT FINAL_PART-1.1821 IS DISTORTING EXCESSIVELY.
   ELEMENT FINAL_PART-1.1823 IS DISTORTING EXCESSIVELY.
   ELEMENT FINAL_PART-1.1826 IS DISTORTING EXCESSIVELY.
   ELEMENT FINAL_PART-1.1827 IS DISTORTING EXCESSIVELY.
   ELEMENT FINAL_PART-1.1829 IS DISTORTING EXCESSIVELY.
   ELEMENT FINAL_PART-1.1830 IS DISTORTING EXCESSIVELY.
   ELEMENT FINAL_PART-1.1831 IS DISTORTING EXCESSIVELY.
   ELEMENT FINAL_PART-1.1834 IS DISTORTING EXCESSIVELY.
   ELEMENT FINAL_PART-1.1835 IS DISTORTING EXCESSIVELY.
   ELEMENT FINAL_PART-1.1836 IS DISTORTING EXCESSIVELY.
   ELEMENT FINAL_PART-1.1840 IS DISTORTING EXCESSIVELY.
   ELEMENT FINAL_PART-1.1841 IS DISTORTING EXCESSIVELY.
   ELEMENT FINAL_PART-1.1842 IS DISTORTING EXCESSIVELY.
   ELEMENT FINAL_PART-1.1843 IS DISTORTING EXCESSIVELY.
   ELEMENT FINAL_PART-1.1844 IS DISTORTING EXCESSIVELY.
   ELEMENT FINAL_PART-1.1845 IS DISTORTING EXCESSIVELY.
   ELEMENT FINAL_PART-1.1846 IS DISTORTING EXCESSIVELY.
   ELEMENT FINAL_PART-1.1847 IS DISTORTING EXCESSIVELY.
   ELEMENT FINAL_PART-1.1848 IS DISTORTING EXCESSIVELY.
   ELEMENT FINAL_PART-1.1850 IS DISTORTING EXCESSIVELY.
   ELEMENT FINAL_PART-1.1856 IS DISTORTING EXCESSIVELY.
   ELEMENT FINAL_PART-1.1857 IS DISTORTING EXCESSIVELY.
   ELEMENT FINAL_PART-1.1858 IS DISTORTING EXCESSIVELY.
   ELEMENT FINAL_PART-1.1861 IS DISTORTING EXCESSIVELY.
   ELEMENT FINAL_PART-1.1864 IS DISTORTING EXCESSIVELY.
   ELEMENT FINAL_PART-1.1866 IS DISTORTING EXCESSIVELY.
   ELEMENT FINAL_PART-1.1868 IS DISTORTING EXCESSIVELY.
   ELEMENT FINAL_PART-1.1870 IS DISTORTING EXCESSIVELY.
   ELEMENT FINAL_PART-1.1871 IS DISTORTING EXCESSIVELY.
   ELEMENT FINAL_PART-1.1872 IS DISTORTING EXCESSIVELY.
   ELEMENT FINAL_PART-1.1874 IS DISTORTING EXCESSIVELY.
   ELEMENT FINAL_PART-1.1876 IS DISTORTING EXCESSIVELY.
   ELEMENT FINAL_PART-1.1877 IS DISTORTING EXCESSIVELY.
   ELEMENT FINAL_PART-1.1879 IS DISTORTING EXCESSIVELY.
   ELEMENT FINAL_PART-1.1883 IS DISTORTING EXCESSIVELY.
   ELEMENT FINAL_PART-1.1885 IS DISTORTING EXCESSIVELY.
   ELEMENT FINAL_PART-1.1886 IS DISTORTING EXCESSIVELY.
   ELEMENT FINAL_PART-1.1887 IS DISTORTING EXCESSIVELY.
   ELEMENT FINAL_PART-1.1888 IS DISTORTING EXCESSIVELY.
   ELEMENT FINAL_PART-1.1889 IS DISTORTING EXCESSIVELY.
   ELEMENT FINAL_PART-1.1890 IS DISTORTING EXCESSIVELY.
   ELEMENT FINAL_PART-1.1892 IS DISTORTING EXCESSIVELY.
   ELEMENT FINAL_PART-1.1894 IS DISTORTING EXCESSIVELY.
   ELEMENT FINAL_PART-1.1896 IS DISTORTING EXCESSIVELY.
   ELEMENT FINAL_PART-1.1898 IS DISTORTING EXCESSIVELY.
   ELEMENT FINAL_PART-1.1899 IS DISTORTING EXCESSIVELY.
   ELEMENT FINAL_PART-1.1900 IS DISTORTING EXCESSIVELY.
   ELEMENT FINAL_PART-1.1901 IS DISTORTING EXCESSIVELY.
   ELEMENT FINAL_PART-1.1902 IS DISTORTING EXCESSIVELY.
   ELEMENT FINAL_PART-1.1907 IS DISTORTING EXCESSIVELY.
   ELEMENT FINAL_PART-1.1908 IS DISTORTING EXCESSIVELY.
   ELEMENT FINAL_PART-1.1910 IS DISTORTING EXCESSIVELY.
   ELEMENT FINAL_PART-1.1912 IS DISTORTING EXCESSIVELY.
   ELEMENT FINAL_PART-1.1913 IS DISTORTING EXCESSIVELY.
   ELEMENT FINAL_PART-1.1914 IS DISTORTING EXCESSIVELY.
   ELEMENT FINAL_PART-1.1918 IS DISTORTING EXCESSIVELY.
   ELEMENT FINAL_PART-1.1919 IS DISTORTING EXCESSIVELY.
   ELEMENT FINAL_PART-1.1921 IS DISTORTING EXCESSIVELY.
   ELEMENT FINAL_PART-1.1923 IS DISTORTING EXCESSIVELY.
   ELEMENT FINAL_PART-1.1924 IS DISTORTING EXCESSIVELY.
   ELEMENT FINAL_PART-1.1925 IS DISTORTING EXCESSIVELY.
   ELEMENT FINAL_PART-1.1926 IS DISTORTING EXCESSIVELY.
   ELEMENT FINAL_PART-1.1927 IS DISTORTING EXCESSIVELY.
   ELEMENT FINAL_PART-1.1929 IS DISTORTING EXCESSIVELY.
   ELEMENT FINAL_PART-1.1934 IS DISTORTING EXCESSIVELY.
   ELEMENT FINAL_PART-1.1936 IS DISTORTING EXCESSIVELY.
   ELEMENT FINAL_PART-1.1938 IS DISTORTING EXCESSIVELY.
   ELEMENT FINAL_PART-1.1942 IS DISTORTING EXCESSIVELY.
   ELEMENT FINAL_PART-1.1943 IS DISTORTING EXCESSIVELY.
   ELEMENT FINAL_PART-1.1944 IS DISTORTING EXCESSIVELY.
   ELEMENT FINAL_PART-1.1945 IS DISTORTING EXCESSIVELY.
   ELEMENT FINAL_PART-1.1946 IS DISTORTING EXCESSIVELY.
   ELEMENT FINAL_PART-1.1947 IS DISTORTING EXCESSIVELY.
   ELEMENT FINAL_PART-1.1948 IS DISTORTING EXCESSIVELY.
   ELEMENT FINAL_PART-1.1949 IS DISTORTING EXCESSIVELY.
   ELEMENT FINAL_PART-1.1951 IS DISTORTING EXCESSIVELY.
   ELEMENT FINAL_PART-1.1953 IS DISTORTING EXCESSIVELY.
   ELEMENT FINAL_PART-1.1954 IS DISTORTING EXCESSIVELY.
   ELEMENT FINAL_PART-1.1956 IS DISTORTING EXCESSIVELY.
   ELEMENT FINAL_PART-1.1958 IS DISTORTING EXCESSIVELY.
   ELEMENT FINAL_PART-1.1959 IS DISTORTING EXCESSIVELY.
   ELEMENT FINAL_PART-1.1960 IS DISTORTING EXCESSIVELY.
   ELEMENT FINAL_PART-1.1961 IS DISTORTING EXCESSIVELY.
   ELEMENT FINAL_PART-1.1962 IS DISTORTING EXCESSIVELY.
   ELEMENT FINAL_PART-1.1963 IS DISTORTING EXCESSIVELY.
   ELEMENT FINAL_PART-1.1967 IS DISTORTING EXCESSIVELY.
   ELEMENT FINAL_PART-1.1968 IS DISTORTING EXCESSIVELY.
   ELEMENT FINAL_PART-1.1969 IS DISTORTING EXCESSIVELY.
   ELEMENT FINAL_PART-1.1970 IS DISTORTING EXCESSIVELY.
   ELEMENT FINAL_PART-1.1972 IS DISTORTING EXCESSIVELY.
   ELEMENT FINAL_PART-1.1973 IS DISTORTING EXCESSIVELY.
   ELEMENT FINAL_PART-1.1976 IS DISTORTING EXCESSIVELY.
   ELEMENT FINAL_PART-1.1977 IS DISTORTING EXCESSIVELY.
   ELEMENT FINAL_PART-1.1978 IS DISTORTING EXCESSIVELY.
   ELEMENT FINAL_PART-1.1979 IS DISTORTING EXCESSIVELY.
   ELEMENT FINAL_PART-1.1980 IS DISTORTING EXCESSIVELY.
   ELEMENT FINAL_PART-1.1981 IS DISTORTING EXCESSIVELY.
   ELEMENT FINAL_PART-1.1983 IS DISTORTING EXCESSIVELY.
   ELEMENT FINAL_PART-1.1984 IS DISTORTING EXCESSIVELY.
   ELEMENT FINAL_PART-1.1985 IS DISTORTING EXCESSIVELY.
   ELEMENT FINAL_PART-1.1987 IS DISTORTING EXCESSIVELY.
   ELEMENT FINAL_PART-1.1988 IS DISTORTING EXCESSIVELY.
   ELEMENT FINAL_PART-1.1990 IS DISTORTING EXCESSIVELY.
   ELEMENT FINAL_PART-1.1992 IS DISTORTING EXCESSIVELY.
   ELEMENT FINAL_PART-1.1993 IS DISTORTING EXCESSIVELY.
   ELEMENT FINAL_PART-1.1995 IS DISTORTING EXCESSIVELY.
   ELEMENT FINAL_PART-1.1996 IS DISTORTING EXCESSIVELY.
   ELEMENT FINAL_PART-1.1997 IS DISTORTING EXCESSIVELY.
   ELEMENT FINAL_PART-1.1998 IS DISTORTING EXCESSIVELY.
   ELEMENT FINAL_PART-1.1999 IS DISTORTING EXCESSIVELY.
   ELEMENT FINAL_PART-1.2000 IS DISTORTING EXCESSIVELY.
   ELEMENT FINAL_PART-1.2002 IS DISTORTING EXCESSIVELY.
   ELEMENT FINAL_PART-1.2005 IS DISTORTING EXCESSIVELY.
   ELEMENT FINAL_PART-1.2008 IS DISTORTING EXCESSIVELY.
   ELEMENT FINAL_PART-1.2009 IS DISTORTING EXCESSIVELY.
   ELEMENT FINAL_PART-1.2012 IS DISTORTING EXCESSIVELY.
   ELEMENT FINAL_PART-1.2013 IS DISTORTING EXCESSIVELY.
   ELEMENT FINAL_PART-1.2014 IS DISTORTING EXCESSIVELY.
   ELEMENT FINAL_PART-1.2015 IS DISTORTING EXCESSIVELY.
   ELEMENT FINAL_PART-1.2016 IS DISTORTING EXCESSIVELY.
   ELEMENT FINAL_PART-1.2018 IS DISTORTING EXCESSIVELY.
   ELEMENT FINAL_PART-1.2020 IS DISTORTING EXCESSIVELY.
   ELEMENT FINAL_PART-1.2021 IS DISTORTING EXCESSIVELY.
   ELEMENT FINAL_PART-1.2022 IS DISTORTING EXCESSIVELY.
   ELEMENT FINAL_PART-1.2024 IS DISTORTING EXCESSIVELY.
   ELEMENT FINAL_PART-1.2025 IS DISTORTING EXCESSIVELY.
   ELEMENT FINAL_PART-1.2028 IS DISTORTING EXCESSIVELY.
   ELEMENT FINAL_PART-1.2029 IS DISTORTING EXCESSIVELY.
   ELEMENT FINAL_PART-1.2032 IS DISTORTING EXCESSIVELY.
   ELEMENT FINAL_PART-1.2033 IS DISTORTING EXCESSIVELY.
   ELEMENT FINAL_PART-1.2035 IS DISTORTING EXCESSIVELY.
   ELEMENT FINAL_PART-1.2037 IS DISTORTING EXCESSIVELY.
   ELEMENT FINAL_PART-1.2040 IS DISTORTING EXCESSIVELY.
   ELEMENT FINAL_PART-1.2043 IS DISTORTING EXCESSIVELY.
   ELEMENT FINAL_PART-1.2047 IS DISTORTING EXCESSIVELY.
   ELEMENT FINAL_PART-1.2048 IS DISTORTING EXCESSIVELY.
   ELEMENT FINAL_PART-1.2050 IS DISTORTING EXCESSIVELY.
   ELEMENT FINAL_PART-1.2051 IS DISTORTING EXCESSIVELY.
   ELEMENT FINAL_PART-1.2052 IS DISTORTING EXCESSIVELY.
   ELEMENT FINAL_PART-1.2054 IS DISTORTING EXCESSIVELY.
   ELEMENT FINAL_PART-1.2056 IS DISTORTING EXCESSIVELY.
   ELEMENT FINAL_PART-1.2058 IS DISTORTING EXCESSIVELY.
   ELEMENT FINAL_PART-1.2059 IS DISTORTING EXCESSIVELY.
   ELEMENT FINAL_PART-1.2060 IS DISTORTING EXCESSIVELY.
   ELEMENT FINAL_PART-1.2062 IS DISTORTING EXCESSIVELY.
   ELEMENT FINAL_PART-1.2064 IS DISTORTING EXCESSIVELY.
   ELEMENT FINAL_PART-1.2068 IS DISTORTING EXCESSIVELY.
   ELEMENT FINAL_PART-1.2070 IS DISTORTING EXCESSIVELY.
   ELEMENT FINAL_PART-1.2072 IS DISTORTING EXCESSIVELY.
   ELEMENT FINAL_PART-1.2073 IS DISTORTING EXCESSIVELY.
   ELEMENT FINAL_PART-1.2076 IS DISTORTING EXCESSIVELY.
   ELEMENT FINAL_PART-1.2077 IS DISTORTING EXCESSIVELY.
   ELEMENT FINAL_PART-1.2079 IS DISTORTING EXCESSIVELY.
   ELEMENT FINAL_PART-1.2083 IS DISTORTING EXCESSIVELY.
   ELEMENT FINAL_PART-1.2084 IS DISTORTING EXCESSIVELY.
   ELEMENT FINAL_PART-1.2086 IS DISTORTING EXCESSIVELY.
   ELEMENT FINAL_PART-1.2087 IS DISTORTING EXCESSIVELY.
   ELEMENT FINAL_PART-1.2092 IS DISTORTING EXCESSIVELY.
   ELEMENT FINAL_PART-1.2093 IS DISTORTING EXCESSIVELY.
   ELEMENT FINAL_PART-1.2094 IS DISTORTING EXCESSIVELY.
   ELEMENT FINAL_PART-1.2095 IS DISTORTING EXCESSIVELY.
   ELEMENT FINAL_PART-1.2097 IS DISTORTING EXCESSIVELY.
   ELEMENT FINAL_PART-1.2098 IS DISTORTING EXCESSIVELY.
   ELEMENT FINAL_PART-1.2101 IS DISTORTING EXCESSIVELY.
   ELEMENT FINAL_PART-1.2102 IS DISTORTING EXCESSIVELY.
   ELEMENT FINAL_PART-1.2105 IS DISTORTING EXCESSIVELY.
   ELEMENT FINAL_PART-1.2107 IS DISTORTING EXCESSIVELY.
   ELEMENT FINAL_PART-1.2113 IS DISTORTING EXCESSIVELY.
   ELEMENT FINAL_PART-1.2115 IS DISTORTING EXCESSIVELY.
   ELEMENT FINAL_PART-1.2116 IS DISTORTING EXCESSIVELY.
   ELEMENT FINAL_PART-1.2117 IS DISTORTING EXCESSIVELY.
   ELEMENT FINAL_PART-1.2119 IS DISTORTING EXCESSIVELY.
   ELEMENT FINAL_PART-1.2120 IS DISTORTING EXCESSIVELY.
   ELEMENT FINAL_PART-1.2123 IS DISTORTING EXCESSIVELY.
   ELEMENT FINAL_PART-1.2124 IS DISTORTING EXCESSIVELY.
   ELEMENT FINAL_PART-1.2125 IS DISTORTING EXCESSIVELY.
   ELEMENT FINAL_PART-1.2126 IS DISTORTING EXCESSIVELY.
   ELEMENT FINAL_PART-1.2127 IS DISTORTING EXCESSIVELY.
   ELEMENT FINAL_PART-1.2130 IS DISTORTING EXCESSIVELY.
   ELEMENT FINAL_PART-1.2132 IS DISTORTING EXCESSIVELY.
   ELEMENT FINAL_PART-1.2133 IS DISTORTING EXCESSIVELY.
   ELEMENT FINAL_PART-1.2134 IS DISTORTING EXCESSIVELY.
   ELEMENT FINAL_PART-1.2135 IS DISTORTING EXCESSIVELY.
   ELEMENT FINAL_PART-1.2136 IS DISTORTING EXCESSIVELY.
   ELEMENT FINAL_PART-1.2137 IS DISTORTING EXCESSIVELY.
   ELEMENT FINAL_PART-1.2140 IS DISTORTING EXCESSIVELY.
   ELEMENT FINAL_PART-1.2141 IS DISTORTING EXCESSIVELY.
   ELEMENT FINAL_PART-1.2144 IS DISTORTING EXCESSIVELY.
   ELEMENT FINAL_PART-1.2145 IS DISTORTING EXCESSIVELY.
   ELEMENT FINAL_PART-1.2146 IS DISTORTING EXCESSIVELY.
   ELEMENT FINAL_PART-1.2147 IS DISTORTING EXCESSIVELY.
   ELEMENT FINAL_PART-1.2148 IS DISTORTING EXCESSIVELY.
   ELEMENT FINAL_PART-1.2149 IS DISTORTING EXCESSIVELY.
   ELEMENT FINAL_PART-1.2151 IS DISTORTING EXCESSIVELY.
   ELEMENT FINAL_PART-1.2152 IS DISTORTING EXCESSIVELY.
   ELEMENT FINAL_PART-1.2153 IS DISTORTING EXCESSIVELY.
   ELEMENT FINAL_PART-1.2154 IS DISTORTING EXCESSIVELY.
   ELEMENT FINAL_PART-1.2156 IS DISTORTING EXCESSIVELY.
   ELEMENT FINAL_PART-1.2157 IS DISTORTING EXCESSIVELY.
   ELEMENT FINAL_PART-1.2158 IS DISTORTING EXCESSIVELY.
   ELEMENT FINAL_PART-1.2159 IS DISTORTING EXCESSIVELY.
   ELEMENT FINAL_PART-1.2160 IS DISTORTING EXCESSIVELY.
   ELEMENT FINAL_PART-1.2161 IS DISTORTING EXCESSIVELY.
   ELEMENT FINAL_PART-1.2164 IS DISTORTING EXCESSIVELY.
   ELEMENT FINAL_PART-1.2168 IS DISTORTING EXCESSIVELY.
   ELEMENT FINAL_PART-1.2169 IS DISTORTING EXCESSIVELY.
   ELEMENT FINAL_PART-1.2172 IS DISTORTING EXCESSIVELY.
   ELEMENT FINAL_PART-1.2173 IS DISTORTING EXCESSIVELY.
   ELEMENT FINAL_PART-1.2174 IS DISTORTING EXCESSIVELY.
   ELEMENT FINAL_PART-1.2175 IS DISTORTING EXCESSIVELY.
   ELEMENT FINAL_PART-1.2177 IS DISTORTING EXCESSIVELY.
   ELEMENT FINAL_PART-1.2182 IS DISTORTING EXCESSIVELY.
   ELEMENT FINAL_PART-1.2183 IS DISTORTING EXCESSIVELY.
   ELEMENT FINAL_PART-1.2184 IS DISTORTING EXCESSIVELY.
   ELEMENT FINAL_PART-1.2185 IS DISTORTING EXCESSIVELY.
   ELEMENT FINAL_PART-1.2186 IS DISTORTING EXCESSIVELY.
   ELEMENT FINAL_PART-1.2187 IS DISTORTING EXCESSIVELY.
   ELEMENT FINAL_PART-1.2188 IS DISTORTING EXCESSIVELY.
   ELEMENT FINAL_PART-1.2189 IS DISTORTING EXCESSIVELY.
   ELEMENT FINAL_PART-1.2192 IS DISTORTING EXCESSIVELY.
   ELEMENT FINAL_PART-1.2194 IS DISTORTING EXCESSIVELY.
   ELEMENT FINAL_PART-1.2196 IS DISTORTING EXCESSIVELY.
   ELEMENT FINAL_PART-1.2197 IS DISTORTING EXCESSIVELY.
   ELEMENT FINAL_PART-1.2198 IS DISTORTING EXCESSIVELY.
   ELEMENT FINAL_PART-1.2200 IS DISTORTING EXCESSIVELY.
   ELEMENT FINAL_PART-1.2202 IS DISTORTING EXCESSIVELY.
   ELEMENT FINAL_PART-1.2203 IS DISTORTING EXCESSIVELY.
   ELEMENT FINAL_PART-1.2204 IS DISTORTING EXCESSIVELY.
   ELEMENT FINAL_PART-1.2205 IS DISTORTING EXCESSIVELY.
   ELEMENT FINAL_PART-1.2210 IS DISTORTING EXCESSIVELY.
   ELEMENT FINAL_PART-1.2212 IS DISTORTING EXCESSIVELY.
   ELEMENT FINAL_PART-1.2213 IS DISTORTING EXCESSIVELY.
   ELEMENT FINAL_PART-1.2219 IS DISTORTING EXCESSIVELY.
   ELEMENT FINAL_PART-1.2220 IS DISTORTING EXCESSIVELY.
   ELEMENT FINAL_PART-1.2222 IS DISTORTING EXCESSIVELY.
   ELEMENT FINAL_PART-1.2223 IS DISTORTING EXCESSIVELY.
   ELEMENT FINAL_PART-1.2226 IS DISTORTING EXCESSIVELY.
   ELEMENT FINAL_PART-1.2229 IS DISTORTING EXCESSIVELY.
   ELEMENT FINAL_PART-1.2230 IS DISTORTING EXCESSIVELY.
   ELEMENT FINAL_PART-1.2231 IS DISTORTING EXCESSIVELY.
   ELEMENT FINAL_PART-1.2236 IS DISTORTING EXCESSIVELY.
   ELEMENT FINAL_PART-1.2238 IS DISTORTING EXCESSIVELY.
   ELEMENT FINAL_PART-1.2239 IS DISTORTING EXCESSIVELY.
   ELEMENT FINAL_PART-1.2240 IS DISTORTING EXCESSIVELY.
   ELEMENT FINAL_PART-1.2241 IS DISTORTING EXCESSIVELY.
   ELEMENT FINAL_PART-1.2245 IS DISTORTING EXCESSIVELY.
   ELEMENT FINAL_PART-1.2246 IS DISTORTING EXCESSIVELY.
   ELEMENT FINAL_PART-1.2248 IS DISTORTING EXCESSIVELY.
   ELEMENT FINAL_PART-1.2253 IS DISTORTING EXCESSIVELY.
   ELEMENT FINAL_PART-1.2257 IS DISTORTING EXCESSIVELY.
   ELEMENT FINAL_PART-1.2264 IS DISTORTING EXCESSIVELY.
   ELEMENT FINAL_PART-1.2266 IS DISTORTING EXCESSIVELY.
   ELEMENT FINAL_PART-1.2267 IS DISTORTING EXCESSIVELY.
   ELEMENT FINAL_PART-1.2274 IS DISTORTING EXCESSIVELY.
   ELEMENT FINAL_PART-1.2275 IS DISTORTING EXCESSIVELY.
   ELEMENT FINAL_PART-1.2276 IS DISTORTING EXCESSIVELY.
   ELEMENT FINAL_PART-1.2277 IS DISTORTING EXCESSIVELY.
   ELEMENT FINAL_PART-1.2278 IS DISTORTING EXCESSIVELY.
   ELEMENT FINAL_PART-1.2283 IS DISTORTING EXCESSIVELY.
   ELEMENT FINAL_PART-1.2285 IS DISTORTING EXCESSIVELY.
   ELEMENT FINAL_PART-1.2286 IS DISTORTING EXCESSIVELY.
   ELEMENT FINAL_PART-1.2289 IS DISTORTING EXCESSIVELY.
   ELEMENT FINAL_PART-1.2290 IS DISTORTING EXCESSIVELY.
   ELEMENT FINAL_PART-1.2291 IS DISTORTING EXCESSIVELY.
   ELEMENT FINAL_PART-1.2292 IS DISTORTING EXCESSIVELY.
   ELEMENT FINAL_PART-1.2293 IS DISTORTING EXCESSIVELY.
   ELEMENT FINAL_PART-1.2296 IS DISTORTING EXCESSIVELY.
   ELEMENT FINAL_PART-1.2299 IS DISTORTING EXCESSIVELY.
   ELEMENT FINAL_PART-1.2304 IS DISTORTING EXCESSIVELY.
   ELEMENT FINAL_PART-1.2305 IS DISTORTING EXCESSIVELY.
   ELEMENT FINAL_PART-1.2306 IS DISTORTING EXCESSIVELY.
   ELEMENT FINAL_PART-1.2307 IS DISTORTING EXCESSIVELY.
   ELEMENT FINAL_PART-1.2309 IS DISTORTING EXCESSIVELY.
   ELEMENT FINAL_PART-1.2310 IS DISTORTING EXCESSIVELY.
   ELEMENT FINAL_PART-1.2313 IS DISTORTING EXCESSIVELY.
   ELEMENT FINAL_PART-1.2315 IS DISTORTING EXCESSIVELY.
   ELEMENT FINAL_PART-1.2317 IS DISTORTING EXCESSIVELY.
   ELEMENT FINAL_PART-1.2318 IS DISTORTING EXCESSIVELY.
   ELEMENT FINAL_PART-1.2319 IS DISTORTING EXCESSIVELY.
   ELEMENT FINAL_PART-1.2320 IS DISTORTING EXCESSIVELY.
   ELEMENT FINAL_PART-1.2321 IS DISTORTING EXCESSIVELY.
   ELEMENT FINAL_PART-1.2322 IS DISTORTING EXCESSIVELY.
   ELEMENT FINAL_PART-1.2323 IS DISTORTING EXCESSIVELY.
   ELEMENT FINAL_PART-1.2325 IS DISTORTING EXCESSIVELY.
   ELEMENT FINAL_PART-1.2329 IS DISTORTING EXCESSIVELY.
   ELEMENT FINAL_PART-1.2331 IS DISTORTING EXCESSIVELY.
   ELEMENT FINAL_PART-1.2332 IS DISTORTING EXCESSIVELY.
   ELEMENT FINAL_PART-1.2333 IS DISTORTING EXCESSIVELY.
   ELEMENT FINAL_PART-1.2334 IS DISTORTING EXCESSIVELY.
   ELEMENT FINAL_PART-1.2340 IS DISTORTING EXCESSIVELY.
   ELEMENT FINAL_PART-1.2342 IS DISTORTING EXCESSIVELY.
   ELEMENT FINAL_PART-1.2344 IS DISTORTING EXCESSIVELY.
   ELEMENT FINAL_PART-1.2345 IS DISTORTING EXCESSIVELY.
   ELEMENT FINAL_PART-1.2346 IS DISTORTING EXCESSIVELY.
   ELEMENT FINAL_PART-1.2350 IS DISTORTING EXCESSIVELY.
   ELEMENT FINAL_PART-1.2351 IS DISTORTING EXCESSIVELY.
   ELEMENT FINAL_PART-1.2352 IS DISTORTING EXCESSIVELY.
   ELEMENT FINAL_PART-1.2353 IS DISTORTING EXCESSIVELY.
   ELEMENT FINAL_PART-1.2356 IS DISTORTING EXCESSIVELY.
   ELEMENT FINAL_PART-1.2358 IS DISTORTING EXCESSIVELY.
   ELEMENT FINAL_PART-1.2361 IS DISTORTING EXCESSIVELY.
   ELEMENT FINAL_PART-1.2362 IS DISTORTING EXCESSIVELY.
   ELEMENT FINAL_PART-1.2367 IS DISTORTING EXCESSIVELY.
   ELEMENT FINAL_PART-1.2368 IS DISTORTING EXCESSIVELY.
   ELEMENT FINAL_PART-1.2369 IS DISTORTING EXCESSIVELY.
   ELEMENT FINAL_PART-1.2373 IS DISTORTING EXCESSIVELY.
   ELEMENT FINAL_PART-1.2375 IS DISTORTING EXCESSIVELY.
   ELEMENT FINAL_PART-1.2380 IS DISTORTING EXCESSIVELY.
   ELEMENT FINAL_PART-1.2383 IS DISTORTING EXCESSIVELY.
   ELEMENT FINAL_PART-1.2386 IS DISTORTING EXCESSIVELY.
   ELEMENT FINAL_PART-1.2389 IS DISTORTING EXCESSIVELY.
   ELEMENT FINAL_PART-1.2390 IS DISTORTING EXCESSIVELY.
   ELEMENT FINAL_PART-1.2391 IS DISTORTING EXCESSIVELY.
   ELEMENT FINAL_PART-1.2394 IS DISTORTING EXCESSIVELY.
   ELEMENT FINAL_PART-1.2396 IS DISTORTING EXCESSIVELY.
   ELEMENT FINAL_PART-1.2399 IS DISTORTING EXCESSIVELY.
   ELEMENT FINAL_PART-1.2401 IS DISTORTING EXCESSIVELY.
[...]
 LARGEST CORRECTION TO DISP.        1.816E-03   AT NODE         43   DOF  2
   INSTANCE: FINAL_PART-1                                                                    
          FORCE     EQUILIBRIUM NOT ACHIEVED WITHIN TOLERANCE.
 

 ***NOTE: THE SOLUTION APPEARS TO BE DIVERGING. CONVERGENCE IS JUDGED UNLIKELY.


  INCREMENT    18 STARTS. ATTEMPT NUMBER  2, TIME INCREMENT  1.375E-05
 
	SYMMETRIC PURE THREAD-BASED DIRECT SPARSE SOLVER RUNNING ON
 	1 HOST x 1 MPI RANK PER HOST x 1 THREAD PER RANK
        NUMBER OF EQUATIONS:  494706
        NUMBER OF RHS:        1
        NUMBER OF FLOPS:      1.131e+11
        SOLVER ELAPSED TIME:  6.5s
 

 ***WARNING: THE SYSTEM MATRIX HAS 1 NEGATIVE EIGENVALUES.
             EXPLANATIONS ARE SUGGESTED AFTER THE FIRST OCCURRENCE OF THIS MESSAGE.

               CONVERGENCE CHECKS FOR EQUILIBRIUM ITERATION     1


 AVERAGE FORCE                      1.168E-02   TIME AVG. FORCE       9.911E-03
 LARGEST SCALED RESIDUAL FORCE      2.074E-02   AT NODE      14145   DOF  2
   INSTANCE: FINAL_PART-1                                                                    
  CORRESPONDING RESIDUAL FORCE      2.074E-02
 LARGEST INCREMENT OF DISP.         1.590E-04   AT NODE         84   DOF  2
   INSTANCE: FINAL_PART-1                                                                    
 LARGEST CORRECTION TO DISP.        1.835E-04   AT NODE         84   DOF  2
   INSTANCE: FINAL_PART-1                                                                    
          FORCE     EQUILIBRIUM NOT ACHIEVED WITHIN TOLERANCE.
 
	SYMMETRIC PURE THREAD-BASED DIRECT SPARSE SOLVER RUNNING ON
 	1 HOST x 1 MPI RANK PER HOST x 1 THREAD PER RANK
        NUMBER OF EQUATIONS:  494706
        NUMBER OF RHS:        1
        NUMBER OF FLOPS:      1.131e+11
        SOLVER ELAPSED TIME:  6.6s

               CONVERGENCE CHECKS FOR EQUILIBRIUM ITERATION     2


 AVERAGE FORCE                      1.135E-02   TIME AVG. FORCE       9.893E-03
 LARGEST SCALED RESIDUAL FORCE      3.834E-05   AT NODE       4469   DOF  3
   INSTANCE: FINAL_PART-1                                                                    
  CORRESPONDING RESIDUAL FORCE      3.834E-05
 LARGEST INCREMENT OF DISP.         1.580E-04   AT NODE         84   DOF  2
   INSTANCE: FINAL_PART-1                                                                    
 LARGEST CORRECTION TO DISP.       -1.072E-06   AT NODE        229   DOF  2
   INSTANCE: FINAL_PART-1                                                                    
          THE FORCE     EQUILIBRIUM EQUATIONS HAVE CONVERGED
          TIME INCREMENT MAY NOW INCREASE TO    2.062E-05

 ITERATION SUMMARY FOR THE INCREMENT:   2 TOTAL ITERATIONS, OF WHICH
   0 ARE SEVERE DISCONTINUITY ITERATIONS AND  2 ARE EQUILIBRIUM ITERATIONS.

 TIME INCREMENT COMPLETED  1.375E-05,  FRACTION OF STEP COMPLETED  0.168    
 STEP TIME COMPLETED       0.168    ,  TOTAL TIME COMPLETED        0.168    


  INCREMENT    19 STARTS. ATTEMPT NUMBER  1, TIME INCREMENT  2.062E-05
 
	SYMMETRIC PURE THREAD-BASED DIRECT SPARSE SOLVER RUNNING ON
 	1 HOST x 1 MPI RANK PER HOST x 1 THREAD PER RANK
        NUMBER OF EQUATIONS:  494706
        NUMBER OF RHS:        1
        NUMBER OF FLOPS:      1.131e+11
        SOLVER ELAPSED TIME:  6.7s
 

 ***WARNING: THE SYSTEM MATRIX HAS 1 NEGATIVE EIGENVALUES.
             EXPLANATIONS ARE SUGGESTED AFTER THE FIRST OCCURRENCE OF THIS MESSAGE.

               CONVERGENCE CHECKS FOR EQUILIBRIUM ITERATION     1


 AVERAGE FORCE                      2.067E-02   TIME AVG. FORCE       1.046E-02
 LARGEST SCALED RESIDUAL FORCE      0.204       AT NODE      14145   DOF  2
   INSTANCE: FINAL_PART-1                                                                    
  CORRESPONDING RESIDUAL FORCE      0.204    
 LARGEST INCREMENT OF DISP.         8.107E-04   AT NODE         43   DOF  2
   INSTANCE: FINAL_PART-1                                                                    
 LARGEST CORRECTION TO DISP.        5.737E-04   AT NODE         43   DOF  2
   INSTANCE: FINAL_PART-1                                                                    
          FORCE     EQUILIBRIUM NOT ACHIEVED WITHIN TOLERANCE.
 
	SYMMETRIC PURE THREAD-BASED DIRECT SPARSE SOLVER RUNNING ON
 	1 HOST x 1 MPI RANK PER HOST x 1 THREAD PER RANK
        NUMBER OF EQUATIONS:  494706
        NUMBER OF RHS:        1
        NUMBER OF FLOPS:      1.131e+11
        SOLVER ELAPSED TIME:  6.5s

               CONVERGENCE CHECKS FOR EQUILIBRIUM ITERATION     2


 AVERAGE FORCE                      1.123E-02   TIME AVG. FORCE       9.963E-03
 LARGEST SCALED RESIDUAL FORCE     -2.542E-04   AT NODE       4844   DOF  3
   INSTANCE: FINAL_PART-1                                                                    
  CORRESPONDING RESIDUAL FORCE     -2.542E-04
 LARGEST INCREMENT OF DISP.         8.057E-04   AT NODE         43   DOF  2
   INSTANCE: FINAL_PART-1                                                                    
 LARGEST CORRECTION TO DISP.       -5.260E-06   AT NODE        236   DOF  2
   INSTANCE: FINAL_PART-1                                                                    
          FORCE     EQUILIBRIUM NOT ACHIEVED WITHIN TOLERANCE.
 
	SYMMETRIC PURE THREAD-BASED DIRECT SPARSE SOLVER RUNNING ON
 	1 HOST x 1 MPI RANK PER HOST x 1 THREAD PER RANK
        NUMBER OF EQUATIONS:  494706
        NUMBER OF RHS:        1
        NUMBER OF FLOPS:      1.131e+11
        SOLVER ELAPSED TIME:  6.5s
 

 ***WARNING: THE SYSTEM MATRIX HAS 1 NEGATIVE EIGENVALUES.
             EXPLANATIONS ARE SUGGESTED AFTER THE FIRST OCCURRENCE OF THIS MESSAGE.

               CONVERGENCE CHECKS FOR EQUILIBRIUM ITERATION     3


 AVERAGE FORCE                      0.864       TIME AVG. FORCE       5.486E-02
 LARGEST SCALED RESIDUAL FORCE       13.1       AT NODE      14145   DOF  2
   INSTANCE: FINAL_PART-1                                                                    
  CORRESPONDING RESIDUAL FORCE       13.1    
 LARGEST INCREMENT OF DISP.         5.450E-03   AT NODE         43   DOF  2
   INSTANCE: FINAL_PART-1                                                                    
 LARGEST CORRECTION TO DISP.        4.645E-03   AT NODE         43   DOF  2
   INSTANCE: FINAL_PART-1                                                                    
          FORCE     EQUILIBRIUM NOT ACHIEVED WITHIN TOLERANCE.
 
	SYMMETRIC PURE THREAD-BASED DIRECT SPARSE SOLVER RUNNING ON
 	1 HOST x 1 MPI RANK PER HOST x 1 THREAD PER RANK
        NUMBER OF EQUATIONS:  494706
        NUMBER OF RHS:        1
        NUMBER OF FLOPS:      1.131e+11
        SOLVER ELAPSED TIME:  6.5s

               CONVERGENCE CHECKS FOR EQUILIBRIUM ITERATION     4


 AVERAGE FORCE                      1.834E-02   TIME AVG. FORCE       1.034E-02
 LARGEST SCALED RESIDUAL FORCE      0.213       AT NODE      14942   DOF  2
   INSTANCE: FINAL_PART-1                                                                    
  CORRESPONDING RESIDUAL FORCE      0.213    
 LARGEST INCREMENT OF DISP.         5.287E-03   AT NODE         43   DOF  2
   INSTANCE: FINAL_PART-1                                                                    
 LARGEST CORRECTION TO DISP.       -1.897E-04   AT NODE        228   DOF  2
   INSTANCE: FINAL_PART-1                                                                    
          FORCE     EQUILIBRIUM NOT ACHIEVED WITHIN TOLERANCE.
 
	SYMMETRIC PURE THREAD-BASED DIRECT SPARSE SOLVER RUNNING ON
 	1 HOST x 1 MPI RANK PER HOST x 1 THREAD PER RANK
        NUMBER OF EQUATIONS:  494706
        NUMBER OF RHS:        1
        NUMBER OF FLOPS:      1.131e+11
        SOLVER ELAPSED TIME:  6.5s
 

 ***WARNING: THE SYSTEM MATRIX HAS 3 NEGATIVE EIGENVALUES.
             EXPLANATIONS ARE SUGGESTED AFTER THE FIRST OCCURRENCE OF THIS MESSAGE.

               CONVERGENCE CHECKS FOR EQUILIBRIUM ITERATION     5


 AVERAGE FORCE                      1.276E-02   TIME AVG. FORCE       1.004E-02
 LARGEST SCALED RESIDUAL FORCE     -0.428       AT NODE        364   DOF  3
   INSTANCE: FINAL_PART-1                                                                    
  CORRESPONDING RESIDUAL FORCE     -0.428    
 LARGEST INCREMENT OF DISP.         5.059E-03   AT NODE         43   DOF  2
   INSTANCE: FINAL_PART-1                                                                    
 LARGEST CORRECTION TO DISP.       -2.889E-04   AT NODE        238   DOF  2
   INSTANCE: FINAL_PART-1                                                                    
          FORCE     EQUILIBRIUM NOT ACHIEVED WITHIN TOLERANCE.
 
	SYMMETRIC PURE THREAD-BASED DIRECT SPARSE SOLVER RUNNING ON
 	1 HOST x 1 MPI RANK PER HOST x 1 THREAD PER RANK
        NUMBER OF EQUATIONS:  494706
        NUMBER OF RHS:        1
        NUMBER OF FLOPS:      1.131e+11
        SOLVER ELAPSED TIME:  6.5s

               CONVERGENCE CHECKS FOR EQUILIBRIUM ITERATION     6


 AVERAGE FORCE                      1.071E-02   TIME AVG. FORCE       9.936E-03
 LARGEST SCALED RESIDUAL FORCE      3.758E-02   AT NODE       3925   DOF  3
   INSTANCE: FINAL_PART-1                                                                    
  CORRESPONDING RESIDUAL FORCE      3.758E-02
 LARGEST INCREMENT OF DISP.         5.080E-03   AT NODE         43   DOF  2
   INSTANCE: FINAL_PART-1                                                                    
 LARGEST CORRECTION TO DISP.       -6.869E-05   AT NODE        315   DOF  3
   INSTANCE: FINAL_PART-1                                                                    
          FORCE     EQUILIBRIUM NOT ACHIEVED WITHIN TOLERANCE.
 
	SYMMETRIC PURE THREAD-BASED DIRECT SPARSE SOLVER RUNNING ON
 	1 HOST x 1 MPI RANK PER HOST x 1 THREAD PER RANK
        NUMBER OF EQUATIONS:  494706
        NUMBER OF RHS:        1
        NUMBER OF FLOPS:      1.131e+11
        SOLVER ELAPSED TIME:  6.7s

               CONVERGENCE CHECKS FOR EQUILIBRIUM ITERATION     7


 AVERAGE FORCE                      1.293E-02   TIME AVG. FORCE       1.005E-02
 LARGEST SCALED RESIDUAL FORCE     -0.492       AT NODE        459   DOF  3
   INSTANCE: FINAL_PART-1                                                                    
  CORRESPONDING RESIDUAL FORCE     -0.492    
 LARGEST INCREMENT OF DISP.         4.833E-03   AT NODE         43   DOF  2
   INSTANCE: FINAL_PART-1                                                                    
 LARGEST CORRECTION TO DISP.       -2.475E-04   AT NODE         43   DOF  2
   INSTANCE: FINAL_PART-1                                                                    
          FORCE     EQUILIBRIUM NOT ACHIEVED WITHIN TOLERANCE.
 

 ***NOTE: THE SOLUTION APPEARS TO BE DIVERGING. CONVERGENCE IS JUDGED UNLIKELY.


  INCREMENT    19 STARTS. ATTEMPT NUMBER  2, TIME INCREMENT  1.000E-05
 
	SYMMETRIC PURE THREAD-BASED DIRECT SPARSE SOLVER RUNNING ON
 	1 HOST x 1 MPI RANK PER HOST x 1 THREAD PER RANK
        NUMBER OF EQUATIONS:  494706
        NUMBER OF RHS:        1
        NUMBER OF FLOPS:      1.131e+11
        SOLVER ELAPSED TIME:  6.4s
 

 ***WARNING: THE SYSTEM MATRIX HAS 1 NEGATIVE EIGENVALUES.
             EXPLANATIONS ARE SUGGESTED AFTER THE FIRST OCCURRENCE OF THIS MESSAGE.

               CONVERGENCE CHECKS FOR EQUILIBRIUM ITERATION     1


 AVERAGE FORCE                      1.455E-02   TIME AVG. FORCE       1.014E-02
 LARGEST SCALED RESIDUAL FORCE      8.744E-02   AT NODE      14145   DOF  2
   INSTANCE: FINAL_PART-1                                                                    
  CORRESPONDING RESIDUAL FORCE      8.744E-02
 LARGEST INCREMENT OF DISP.         4.906E-04   AT NODE         43   DOF  2
   INSTANCE: FINAL_PART-1                                                                    
 LARGEST CORRECTION TO DISP.        3.757E-04   AT NODE         43   DOF  2
   INSTANCE: FINAL_PART-1                                                                    
          FORCE     EQUILIBRIUM NOT ACHIEVED WITHIN TOLERANCE.
 
	SYMMETRIC PURE THREAD-BASED DIRECT SPARSE SOLVER RUNNING ON
 	1 HOST x 1 MPI RANK PER HOST x 1 THREAD PER RANK
        NUMBER OF EQUATIONS:  494706
        NUMBER OF RHS:        1
        NUMBER OF FLOPS:      1.131e+11
        SOLVER ELAPSED TIME:  7.0s

               CONVERGENCE CHECKS FOR EQUILIBRIUM ITERATION     2


 AVERAGE FORCE                      1.128E-02   TIME AVG. FORCE       9.966E-03
 LARGEST SCALED RESIDUAL FORCE      1.165E-04   AT NODE       4469   DOF  3
   INSTANCE: FINAL_PART-1                                                                    
  CORRESPONDING RESIDUAL FORCE      1.165E-04
 LARGEST INCREMENT OF DISP.         4.882E-04   AT NODE         43   DOF  2
   INSTANCE: FINAL_PART-1                                                                    
 LARGEST CORRECTION TO DISP.       -2.496E-06   AT NODE        229   DOF  2
   INSTANCE: FINAL_PART-1                                                                    
          FORCE     EQUILIBRIUM NOT ACHIEVED WITHIN TOLERANCE.
 
	SYMMETRIC PURE THREAD-BASED DIRECT SPARSE SOLVER RUNNING ON
 	1 HOST x 1 MPI RANK PER HOST x 1 THREAD PER RANK
        NUMBER OF EQUATIONS:  494706
        NUMBER OF RHS:        1
        NUMBER OF FLOPS:      1.131e+11
        SOLVER ELAPSED TIME:  6.5s
 

 ***WARNING: THE SYSTEM MATRIX HAS 1 NEGATIVE EIGENVALUES.
             EXPLANATIONS ARE SUGGESTED AFTER THE FIRST OCCURRENCE OF THIS MESSAGE.

               CONVERGENCE CHECKS FOR EQUILIBRIUM ITERATION     3


 AVERAGE FORCE                      0.100       TIME AVG. FORCE       1.465E-02
 LARGEST SCALED RESIDUAL FORCE       1.54       AT NODE      14145   DOF  2
   INSTANCE: FINAL_PART-1                                                                    
  CORRESPONDING RESIDUAL FORCE       1.54    
 LARGEST INCREMENT OF DISP.         2.064E-03   AT NODE         43   DOF  2
   INSTANCE: FINAL_PART-1                                                                    
 LARGEST CORRECTION TO DISP.        1.575E-03   AT NODE         43   DOF  2
   INSTANCE: FINAL_PART-1                                                                    
          FORCE     EQUILIBRIUM NOT ACHIEVED WITHIN TOLERANCE.
 
	SYMMETRIC PURE THREAD-BASED DIRECT SPARSE SOLVER RUNNING ON
 	1 HOST x 1 MPI RANK PER HOST x 1 THREAD PER RANK
        NUMBER OF EQUATIONS:  494706
        NUMBER OF RHS:        1
        NUMBER OF FLOPS:      1.131e+11
        SOLVER ELAPSED TIME:  6.5s

               CONVERGENCE CHECKS FOR EQUILIBRIUM ITERATION     4


 AVERAGE FORCE                      1.103E-02   TIME AVG. FORCE       9.952E-03
 LARGEST SCALED RESIDUAL FORCE     -2.545E-03   AT NODE      14518   DOF  1
   INSTANCE: FINAL_PART-1                                                                    
  CORRESPONDING RESIDUAL FORCE     -2.545E-03
 LARGEST INCREMENT OF DISP.         2.033E-03   AT NODE         43   DOF  2
   INSTANCE: FINAL_PART-1                                                                    
 LARGEST CORRECTION TO DISP.       -3.244E-05   AT NODE        236   DOF  2
   INSTANCE: FINAL_PART-1                                                                    
          FORCE     EQUILIBRIUM NOT ACHIEVED WITHIN TOLERANCE.
 
	SYMMETRIC PURE THREAD-BASED DIRECT SPARSE SOLVER RUNNING ON
 	1 HOST x 1 MPI RANK PER HOST x 1 THREAD PER RANK
        NUMBER OF EQUATIONS:  494706
        NUMBER OF RHS:        1
        NUMBER OF FLOPS:      1.131e+11
        SOLVER ELAPSED TIME:  6.5s
 

 ***WARNING: THE SYSTEM MATRIX HAS 1 NEGATIVE EIGENVALUES.
             EXPLANATIONS ARE SUGGESTED AFTER THE FIRST OCCURRENCE OF THIS MESSAGE.

               CONVERGENCE CHECKS FOR EQUILIBRIUM ITERATION     5


 AVERAGE FORCE                      1.133E-02   TIME AVG. FORCE       9.968E-03
 LARGEST SCALED RESIDUAL FORCE      1.821E-02   AT NODE      14206   DOF  2
   INSTANCE: FINAL_PART-1                                                                    
  CORRESPONDING RESIDUAL FORCE      1.821E-02
 LARGEST INCREMENT OF DISP.         2.195E-03   AT NODE         43   DOF  2
   INSTANCE: FINAL_PART-1                                                                    
 LARGEST CORRECTION TO DISP.        1.619E-04   AT NODE         43   DOF  2
   INSTANCE: FINAL_PART-1                                                                    
          FORCE     EQUILIBRIUM NOT ACHIEVED WITHIN TOLERANCE.
 
	SYMMETRIC PURE THREAD-BASED DIRECT SPARSE SOLVER RUNNING ON
 	1 HOST x 1 MPI RANK PER HOST x 1 THREAD PER RANK
        NUMBER OF EQUATIONS:  494706
        NUMBER OF RHS:        1
        NUMBER OF FLOPS:      1.131e+11
        SOLVER ELAPSED TIME:  6.6s

               CONVERGENCE CHECKS FOR EQUILIBRIUM ITERATION     6


 AVERAGE FORCE                      1.100E-02   TIME AVG. FORCE       9.951E-03
 LARGEST SCALED RESIDUAL FORCE      1.175E-04   AT NODE       4470   DOF  3
   INSTANCE: FINAL_PART-1                                                                    
  CORRESPONDING RESIDUAL FORCE      1.175E-04
 LARGEST INCREMENT OF DISP.         2.185E-03   AT NODE         43   DOF  2
   INSTANCE: FINAL_PART-1                                                                    
 LARGEST CORRECTION TO DISP.       -1.056E-05   AT NODE         43   DOF  2
   INSTANCE: FINAL_PART-1                                                                    
          FORCE     EQUILIBRIUM NOT ACHIEVED WITHIN TOLERANCE.
 
	SYMMETRIC PURE THREAD-BASED DIRECT SPARSE SOLVER RUNNING ON
 	1 HOST x 1 MPI RANK PER HOST x 1 THREAD PER RANK
        NUMBER OF EQUATIONS:  494706
        NUMBER OF RHS:        1
        NUMBER OF FLOPS:      1.131e+11
        SOLVER ELAPSED TIME:  6.5s

               CONVERGENCE CHECKS FOR EQUILIBRIUM ITERATION     7


 AVERAGE FORCE                      6.333E-02   TIME AVG. FORCE       1.271E-02
 LARGEST SCALED RESIDUAL FORCE      0.875       AT NODE      14145   DOF  2
   INSTANCE: FINAL_PART-1                                                                    
  CORRESPONDING RESIDUAL FORCE      0.875    
 LARGEST INCREMENT OF DISP.         1.031E-03   AT NODE         46   DOF  2
   INSTANCE: FINAL_PART-1                                                                    
 LARGEST CORRECTION TO DISP.       -1.154E-03   AT NODE         43   DOF  2
   INSTANCE: FINAL_PART-1                                                                    
          FORCE     EQUILIBRIUM NOT ACHIEVED WITHIN TOLERANCE.
 

 ***NOTE: THE SOLUTION APPEARS TO BE DIVERGING. CONVERGENCE IS JUDGED UNLIKELY.
 

 ***ERROR: TIME INCREMENT REQUIRED IS LESS THAN THE MINIMUM SPECIFIED

 ***ERROR: THE ANALYSIS HAS BEEN TERMINATED DUE TO PREVIOUS ERRORS. ALL OUTPUT 
           REQUESTS HAVE BEEN WRITTEN FOR THE LAST CONVERGED INCREMENT.



     ANALYSIS SUMMARY:
     TOTAL OF         19  INCREMENTS
                      13  CUTBACKS IN AUTOMATIC INCREMENTATION
                     135  ITERATIONS INCLUDING CONTACT ITERATIONS IF PRESENT
                     135  PASSES THROUGH THE EQUATION SOLVER OF WHICH 
                     135  INVOLVE MATRIX DECOMPOSITION, INCLUDING
                       0  DECOMPOSITION(S) OF THE MASS MATRIX
                       1  REORDERING OF EQUATIONS TO MINIMIZE WAVEFRONT
                       0  ADDITIONAL RESIDUAL EVALUATIONS FOR LINE SEARCHES
                       0  ADDITIONAL OPERATOR EVALUATIONS FOR LINE SEARCHES
                       1  WARNING MESSAGES DURING USER INPUT PROCESSING
                      40  WARNING MESSAGES DURING ANALYSIS
                       0  ANALYSIS WARNINGS ARE NUMERICAL PROBLEM MESSAGES
                      35  ANALYSIS WARNINGS ARE NEGATIVE EIGENVALUE MESSAGES
                       2  ERROR MESSAGES



     JOB TIME SUMMARY
       USER TIME (SEC)      =     5.40E+03
       SYSTEM TIME (SEC)    =     4.98E+02
       TOTAL CPU TIME (SEC) =     5.90E+03
       WALLCLOCK TIME (SEC) =         1831
       MEMORY PEAK (GB)     =            0
