1

   Abaqus 2025                                  Date 24-Feb-2026   Time 13:03:28
   For use by UNIVERSITAET STUTTGART under license from Dassault Systemes or its subsidiary.

                                                                                 
                                                                                 
 STEP    1     INCREMENT     1     STEP TIME    0.00    


                        S T E P       1     S T A T I C   A N A L Y S I S


                                                                                          

     AUTOMATIC TIME CONTROL WITH -
          A SUGGESTED INITIAL TIME INCREMENT OF                 1.00    
          AND A TOTAL TIME PERIOD OF                            1.00    
          THE MINIMUM TIME INCREMENT ALLOWED IS                1.000E-05
          THE MAXIMUM TIME INCREMENT ALLOWED IS                 1.00    

     LINEAR EQUATION SOLVER TYPE         DIRECT SPARSE

 CONVERGENCE TOLERANCE PARAMETERS FOR FORCE    
     CRITERION FOR RESIDUAL FORCE     FOR A NONLINEAR PROBLEM          5.000E-03
     CRITERION FOR DISP.    CORRECTION IN A NONLINEAR PROBLEM          1.000E-02
     INITIAL VALUE OF TIME AVERAGE FORCE                               1.000E-02
     AVERAGE FORCE     IS TIME AVERAGE FORCE    
     ALTERNATE CRIT. FOR RESIDUAL FORCE     FOR A NONLINEAR PROBLEM    2.000E-02
     CRITERION FOR ZERO FORCE     RELATIVE TO TIME AVRG. FORCE         1.000E-05
     CRITERION FOR RESIDUAL FORCE     WHEN THERE IS ZERO FLUX          1.000E-05
     CRITERION FOR DISP.    CORRECTION WHEN THERE IS ZERO FLUX         1.000E-03
     CRITERION FOR RESIDUAL FORCE     FOR A LINEAR INCREMENT           1.000E-08
     FIELD CONVERSION RATIO                                             1.00    
     CRITERION FOR ZERO FORCE     REL. TO TIME AVRG. MAX. FORCE        1.000E-05
     CRITERION FOR ZERO DISP.    RELATIVE TO CHARACTERISTIC LENGTH     1.000E-08

     VOLUMETRIC STRAIN COMPATIBILITY TOLERANCE FOR HYBRID SOLIDS       1.000E-05
     AXIAL STRAIN COMPATIBILITY TOLERANCE FOR HYBRID BEAMS             1.000E-05
     TRANS. SHEAR STRAIN COMPATIBILITY TOLERANCE FOR HYBRID BEAMS      1.000E-05
     SOFT CONTACT CONSTRAINT COMPATIBILITY TOLERANCE FOR P>P0          5.000E-03
     SOFT CONTACT CONSTRAINT COMPATIBILITY TOLERANCE FOR P=0.0         0.100    
     CONTACT FORCE ERROR TOLERANCE FOR CONVERT SDI=YES                 1.00    
     DISPLACEMENT COMPATIBILITY TOLERANCE FOR DCOUP ELEMENTS           1.000E-05
     ROTATION COMPATIBILITY TOLERANCE FOR DCOUP ELEMENTS               1.000E-05

 EQUILIBRIUM WILL BE CHECKED FOR SEVERE DISCONTINUITY ITERATIONS

 TIME INCREMENTATION CONTROL PARAMETERS:
     FIRST EQUILIBRIUM ITERATION FOR CONSECUTIVE DIVERGENCE CHECK              4
     EQUILIBRIUM ITERATION AT WHICH LOG. CONVERGENCE RATE CHECK BEGINS         8
     EQUILIBRIUM ITERATION AFTER WHICH ALTERNATE RESIDUAL IS USED              9
     MAXIMUM EQUILIBRIUM ITERATIONS ALLOWED                                   16
     EQUILIBRIUM ITERATION COUNT FOR CUT-BACK IN NEXT INCREMENT               10
     MAXIMUM EQUILIB. ITERS IN TWO INCREMENTS FOR TIME INCREMENT INCREASE      4
     MAXIMUM ITERATIONS FOR SEVERE DISCONTINUITIES                            50
     MAXIMUM ATTEMPTS ALLOWED IN AN INCREMENT                                  5
     MAXIMUM DISCON. ITERS IN TWO INCREMENTS FOR TIME INCREMENT INCREASE      50
     MAXIMUM CONTACT AUGMENTATIONS FOR *SURFACE BEHAVIOR,AUGMENTED LAGRANGE   50
     CUT-BACK FACTOR AFTER DIVERGENCE                                 0.2500    
     CUT-BACK FACTOR FOR TOO SLOW CONVERGENCE                         0.5000    
     CUT-BACK FACTOR AFTER TOO MANY EQUILIBRIUM ITERATIONS            0.7500    
     CUT-BACK FACTOR AFTER TOO MANY SEVERE DISCONTINUITY ITERATIONS   0.2500    
     CUT-BACK FACTOR AFTER PROBLEMS IN ELEMENT ASSEMBLY               0.2500    
     INCREASE FACTOR AFTER TWO INCREMENTS THAT CONVERGE QUICKLY        1.500    
     MAX. TIME INCREMENT INCREASE FACTOR ALLOWED                       1.500    
     MAX. TIME INCREMENT INCREASE FACTOR ALLOWED (DYNAMICS)            1.250    
     MAX. TIME INCREMENT INCREASE FACTOR ALLOWED (DIFFUSION)           2.000    
     MINIMUM TIME INCREMENT RATIO FOR EXTRAPOLATION TO OCCUR          0.1000    
     MAX. RATIO OF TIME INCREMENT TO STABILITY LIMIT                   1.000    
     FRACTION OF STABILITY LIMIT FOR NEW TIME INCREMENT               0.9500    
     TIME INCREMENT INCREASE FACTOR BEFORE A TIME POINT                1.000    
     GLOBAL STABILIZATION CONTROL IS NOT USED

          PRINT OF INCREMENT NUMBER, TIME, ETC., EVERY    1  INCREMENTS

     THE MAXIMUM NUMBER OF INCREMENTS IN THIS STEP IS                     100

          LARGE DISPLACEMENT THEORY WILL BE USED

     LINEAR EXTRAPOLATION WILL BE USED

     CHARACTERISTIC ELEMENT LENGTH     4.346E-04

     DETAILS REGARDING ACTUAL SOLUTION WAVEFRONT REQUESTED

     DETAILED OUTPUT OF DIAGNOSTICS TO DATABASE REQUESTED

     PRINT OF INCREMENT NUMBER, TIME, ETC., TO THE MESSAGE FILE EVERY     1  INCREMENTS

     COLLECTING MODEL CONSTRAINT INFORMATION FOR OVERCONSTRAINT CHECKS

     COLLECTING STEP CONSTRAINT INFORMATION FOR OVERCONSTRAINT CHECKS


  INCREMENT     1 STARTS. ATTEMPT NUMBER  1, TIME INCREMENT   1.00    
 
	SYMMETRIC PURE THREAD-BASED DIRECT SPARSE SOLVER RUNNING ON
 	1 HOST x 1 MPI RANK PER HOST x 1 THREAD PER RANK
        NUMBER OF EQUATIONS:  494706
        NUMBER OF RHS:        1
        NUMBER OF FLOPS:      1.131e+11
        SOLVER ELAPSED TIME:  4.4s
   ELEMENT FINAL_PART-1.19 IS DISTORTING EXCESSIVELY.
   ELEMENT FINAL_PART-1.20 IS DISTORTING EXCESSIVELY.
   ELEMENT FINAL_PART-1.21 IS DISTORTING EXCESSIVELY.
   ELEMENT FINAL_PART-1.22 IS DISTORTING EXCESSIVELY.
   ELEMENT FINAL_PART-1.23 IS DISTORTING EXCESSIVELY.
   ELEMENT FINAL_PART-1.24 IS DISTORTING EXCESSIVELY.
   ELEMENT FINAL_PART-1.25 IS DISTORTING EXCESSIVELY.
   ELEMENT FINAL_PART-1.26 IS DISTORTING EXCESSIVELY.
   ELEMENT FINAL_PART-1.45 IS DISTORTING EXCESSIVELY.
   ELEMENT FINAL_PART-1.46 IS DISTORTING EXCESSIVELY.
   ELEMENT FINAL_PART-1.47 IS DISTORTING EXCESSIVELY.
   ELEMENT FINAL_PART-1.48 IS DISTORTING EXCESSIVELY.
   ELEMENT FINAL_PART-1.49 IS DISTORTING EXCESSIVELY.
   ELEMENT FINAL_PART-1.50 IS DISTORTING EXCESSIVELY.
   ELEMENT FINAL_PART-1.51 IS DISTORTING EXCESSIVELY.
   ELEMENT FINAL_PART-1.69 IS DISTORTING EXCESSIVELY.
   ELEMENT FINAL_PART-1.70 IS DISTORTING EXCESSIVELY.
   ELEMENT FINAL_PART-1.71 IS DISTORTING EXCESSIVELY.
   ELEMENT FINAL_PART-1.72 IS DISTORTING EXCESSIVELY.
   ELEMENT FINAL_PART-1.73 IS DISTORTING EXCESSIVELY.
   ELEMENT FINAL_PART-1.74 IS DISTORTING EXCESSIVELY.
   ELEMENT FINAL_PART-1.75 IS DISTORTING EXCESSIVELY.
   ELEMENT FINAL_PART-1.76 IS DISTORTING EXCESSIVELY.
   ELEMENT FINAL_PART-1.77 IS DISTORTING EXCESSIVELY.
   ELEMENT FINAL_PART-1.95 IS DISTORTING EXCESSIVELY.
   ELEMENT FINAL_PART-1.96 IS DISTORTING EXCESSIVELY.
   ELEMENT FINAL_PART-1.97 IS DISTORTING EXCESSIVELY.
   ELEMENT FINAL_PART-1.98 IS DISTORTING EXCESSIVELY.
   ELEMENT FINAL_PART-1.99 IS DISTORTING EXCESSIVELY.
   ELEMENT FINAL_PART-1.100 IS DISTORTING EXCESSIVELY.
   ELEMENT FINAL_PART-1.101 IS DISTORTING EXCESSIVELY.
   ELEMENT FINAL_PART-1.102 IS DISTORTING EXCESSIVELY.
   ELEMENT FINAL_PART-1.103 IS DISTORTING EXCESSIVELY.
   ELEMENT FINAL_PART-1.104 IS DISTORTING EXCESSIVELY.
   ELEMENT FINAL_PART-1.105 IS DISTORTING EXCESSIVELY.
   ELEMENT FINAL_PART-1.107 IS DISTORTING EXCESSIVELY.
   ELEMENT FINAL_PART-1.109 IS DISTORTING EXCESSIVELY.
   ELEMENT FINAL_PART-1.111 IS DISTORTING EXCESSIVELY.
   ELEMENT FINAL_PART-1.113 IS DISTORTING EXCESSIVELY.
   ELEMENT FINAL_PART-1.131 IS DISTORTING EXCESSIVELY.
   ELEMENT FINAL_PART-1.133 IS DISTORTING EXCESSIVELY.
   ELEMENT FINAL_PART-1.135 IS DISTORTING EXCESSIVELY.
   ELEMENT FINAL_PART-1.136 IS DISTORTING EXCESSIVELY.
   ELEMENT FINAL_PART-1.138 IS DISTORTING EXCESSIVELY.
   ELEMENT FINAL_PART-1.140 IS DISTORTING EXCESSIVELY.
   ELEMENT FINAL_PART-1.142 IS DISTORTING EXCESSIVELY.
   ELEMENT FINAL_PART-1.144 IS DISTORTING EXCESSIVELY.
   ELEMENT FINAL_PART-1.162 IS DISTORTING EXCESSIVELY.
   ELEMENT FINAL_PART-1.164 IS DISTORTING EXCESSIVELY.
   ELEMENT FINAL_PART-1.166 IS DISTORTING EXCESSIVELY.
   ELEMENT FINAL_PART-1.167 IS DISTORTING EXCESSIVELY.
   ELEMENT FINAL_PART-1.169 IS DISTORTING EXCESSIVELY.
   ELEMENT FINAL_PART-1.171 IS DISTORTING EXCESSIVELY.
   ELEMENT FINAL_PART-1.173 IS DISTORTING EXCESSIVELY.
   ELEMENT FINAL_PART-1.175 IS DISTORTING EXCESSIVELY.
   ELEMENT FINAL_PART-1.177 IS DISTORTING EXCESSIVELY.
   ELEMENT FINAL_PART-1.179 IS DISTORTING EXCESSIVELY.
   ELEMENT FINAL_PART-1.190 IS DISTORTING EXCESSIVELY.
   ELEMENT FINAL_PART-1.191 IS DISTORTING EXCESSIVELY.
   ELEMENT FINAL_PART-1.192 IS DISTORTING EXCESSIVELY.
   ELEMENT FINAL_PART-1.193 IS DISTORTING EXCESSIVELY.
   ELEMENT FINAL_PART-1.194 IS DISTORTING EXCESSIVELY.
   ELEMENT FINAL_PART-1.195 IS DISTORTING EXCESSIVELY.
   ELEMENT FINAL_PART-1.196 IS DISTORTING EXCESSIVELY.
   ELEMENT FINAL_PART-1.197 IS DISTORTING EXCESSIVELY.
   ELEMENT FINAL_PART-1.198 IS DISTORTING EXCESSIVELY.
   ELEMENT FINAL_PART-1.199 IS DISTORTING EXCESSIVELY.
   ELEMENT FINAL_PART-1.223 IS DISTORTING EXCESSIVELY.
   ELEMENT FINAL_PART-1.224 IS DISTORTING EXCESSIVELY.
   ELEMENT FINAL_PART-1.225 IS DISTORTING EXCESSIVELY.
   ELEMENT FINAL_PART-1.226 IS DISTORTING EXCESSIVELY.
   ELEMENT FINAL_PART-1.227 IS DISTORTING EXCESSIVELY.
   ELEMENT FINAL_PART-1.228 IS DISTORTING EXCESSIVELY.
   ELEMENT FINAL_PART-1.229 IS DISTORTING EXCESSIVELY.
   ELEMENT FINAL_PART-1.230 IS DISTORTING EXCESSIVELY.
   ELEMENT FINAL_PART-1.231 IS DISTORTING EXCESSIVELY.
   ELEMENT FINAL_PART-1.232 IS DISTORTING EXCESSIVELY.
   ELEMENT FINAL_PART-1.233 IS DISTORTING EXCESSIVELY.
   ELEMENT FINAL_PART-1.234 IS DISTORTING EXCESSIVELY.
   ELEMENT FINAL_PART-1.258 IS DISTORTING EXCESSIVELY.
   ELEMENT FINAL_PART-1.259 IS DISTORTING EXCESSIVELY.
   ELEMENT FINAL_PART-1.260 IS DISTORTING EXCESSIVELY.
   ELEMENT FINAL_PART-1.261 IS DISTORTING EXCESSIVELY.
   ELEMENT FINAL_PART-1.262 IS DISTORTING EXCESSIVELY.
   ELEMENT FINAL_PART-1.263 IS DISTORTING EXCESSIVELY.
   ELEMENT FINAL_PART-1.264 IS DISTORTING EXCESSIVELY.
   ELEMENT FINAL_PART-1.265 IS DISTORTING EXCESSIVELY.
   ELEMENT FINAL_PART-1.266 IS DISTORTING EXCESSIVELY.
   ELEMENT FINAL_PART-1.267 IS DISTORTING EXCESSIVELY.
   ELEMENT FINAL_PART-1.268 IS DISTORTING EXCESSIVELY.
   ELEMENT FINAL_PART-1.269 IS DISTORTING EXCESSIVELY.
   ELEMENT FINAL_PART-1.316 IS DISTORTING EXCESSIVELY.
   ELEMENT FINAL_PART-1.317 IS DISTORTING EXCESSIVELY.
   ELEMENT FINAL_PART-1.318 IS DISTORTING EXCESSIVELY.
   ELEMENT FINAL_PART-1.319 IS DISTORTING EXCESSIVELY.
   ELEMENT FINAL_PART-1.320 IS DISTORTING EXCESSIVELY.
   ELEMENT FINAL_PART-1.321 IS DISTORTING EXCESSIVELY.
   ELEMENT FINAL_PART-1.322 IS DISTORTING EXCESSIVELY.
   ELEMENT FINAL_PART-1.323 IS DISTORTING EXCESSIVELY.
   ELEMENT FINAL_PART-1.324 IS DISTORTING EXCESSIVELY.
   ELEMENT FINAL_PART-1.325 IS DISTORTING EXCESSIVELY.
   ELEMENT FINAL_PART-1.326 IS DISTORTING EXCESSIVELY.
   ELEMENT FINAL_PART-1.329 IS DISTORTING EXCESSIVELY.
   ELEMENT FINAL_PART-1.331 IS DISTORTING EXCESSIVELY.
   ELEMENT FINAL_PART-1.333 IS DISTORTING EXCESSIVELY.
   ELEMENT FINAL_PART-1.335 IS DISTORTING EXCESSIVELY.
   ELEMENT FINAL_PART-1.337 IS DISTORTING EXCESSIVELY.
   ELEMENT FINAL_PART-1.339 IS DISTORTING EXCESSIVELY.
   ELEMENT FINAL_PART-1.364 IS DISTORTING EXCESSIVELY.
   ELEMENT FINAL_PART-1.366 IS DISTORTING EXCESSIVELY.
   ELEMENT FINAL_PART-1.367 IS DISTORTING EXCESSIVELY.
   ELEMENT FINAL_PART-1.369 IS DISTORTING EXCESSIVELY.
   ELEMENT FINAL_PART-1.394 IS DISTORTING EXCESSIVELY.
   ELEMENT FINAL_PART-1.396 IS DISTORTING EXCESSIVELY.
   ELEMENT FINAL_PART-1.398 IS DISTORTING EXCESSIVELY.
   ELEMENT FINAL_PART-1.400 IS DISTORTING EXCESSIVELY.
   ELEMENT FINAL_PART-1.402 IS DISTORTING EXCESSIVELY.
   ELEMENT FINAL_PART-1.404 IS DISTORTING EXCESSIVELY.
   ELEMENT FINAL_PART-1.407 IS DISTORTING EXCESSIVELY.
   ELEMENT FINAL_PART-1.418 IS DISTORTING EXCESSIVELY.
   ELEMENT FINAL_PART-1.420 IS DISTORTING EXCESSIVELY.
   ELEMENT FINAL_PART-1.422 IS DISTORTING EXCESSIVELY.
   ELEMENT FINAL_PART-1.424 IS DISTORTING EXCESSIVELY.
   ELEMENT FINAL_PART-1.426 IS DISTORTING EXCESSIVELY.
   ELEMENT FINAL_PART-1.428 IS DISTORTING EXCESSIVELY.
   ELEMENT FINAL_PART-1.430 IS DISTORTING EXCESSIVELY.
   ELEMENT FINAL_PART-1.431 IS DISTORTING EXCESSIVELY.
   ELEMENT FINAL_PART-1.432 IS DISTORTING EXCESSIVELY.
   ELEMENT FINAL_PART-1.469 IS DISTORTING EXCESSIVELY.
   ELEMENT FINAL_PART-1.470 IS DISTORTING EXCESSIVELY.
   ELEMENT FINAL_PART-1.471 IS DISTORTING EXCESSIVELY.
   ELEMENT FINAL_PART-1.472 IS DISTORTING EXCESSIVELY.
   ELEMENT FINAL_PART-1.473 IS DISTORTING EXCESSIVELY.
   ELEMENT FINAL_PART-1.474 IS DISTORTING EXCESSIVELY.
   ELEMENT FINAL_PART-1.475 IS DISTORTING EXCESSIVELY.
   ELEMENT FINAL_PART-1.476 IS DISTORTING EXCESSIVELY.
   ELEMENT FINAL_PART-1.477 IS DISTORTING EXCESSIVELY.
   ELEMENT FINAL_PART-1.511 IS DISTORTING EXCESSIVELY.
   ELEMENT FINAL_PART-1.512 IS DISTORTING EXCESSIVELY.
   ELEMENT FINAL_PART-1.513 IS DISTORTING EXCESSIVELY.
   ELEMENT FINAL_PART-1.514 IS DISTORTING EXCESSIVELY.
   ELEMENT FINAL_PART-1.515 IS DISTORTING EXCESSIVELY.
   ELEMENT FINAL_PART-1.516 IS DISTORTING EXCESSIVELY.
   ELEMENT FINAL_PART-1.517 IS DISTORTING EXCESSIVELY.
   ELEMENT FINAL_PART-1.518 IS DISTORTING EXCESSIVELY.
   ELEMENT FINAL_PART-1.519 IS DISTORTING EXCESSIVELY.
   ELEMENT FINAL_PART-1.520 IS DISTORTING EXCESSIVELY.
   ELEMENT FINAL_PART-1.556 IS DISTORTING EXCESSIVELY.
   ELEMENT FINAL_PART-1.557 IS DISTORTING EXCESSIVELY.
   ELEMENT FINAL_PART-1.558 IS DISTORTING EXCESSIVELY.
   ELEMENT FINAL_PART-1.559 IS DISTORTING EXCESSIVELY.
   ELEMENT FINAL_PART-1.560 IS DISTORTING EXCESSIVELY.
   ELEMENT FINAL_PART-1.561 IS DISTORTING EXCESSIVELY.
   ELEMENT FINAL_PART-1.562 IS DISTORTING EXCESSIVELY.
   ELEMENT FINAL_PART-1.563 IS DISTORTING EXCESSIVELY.
   ELEMENT FINAL_PART-1.597 IS DISTORTING EXCESSIVELY.
   ELEMENT FINAL_PART-1.598 IS DISTORTING EXCESSIVELY.
   ELEMENT FINAL_PART-1.599 IS DISTORTING EXCESSIVELY.
   ELEMENT FINAL_PART-1.600 IS DISTORTING EXCESSIVELY.
   ELEMENT FINAL_PART-1.601 IS DISTORTING EXCESSIVELY.
   ELEMENT FINAL_PART-1.602 IS DISTORTING EXCESSIVELY.
   ELEMENT FINAL_PART-1.603 IS DISTORTING EXCESSIVELY.
   ELEMENT FINAL_PART-1.604 IS DISTORTING EXCESSIVELY.
   ELEMENT FINAL_PART-1.605 IS DISTORTING EXCESSIVELY.
   ELEMENT FINAL_PART-1.606 IS DISTORTING EXCESSIVELY.
   ELEMENT FINAL_PART-1.607 IS DISTORTING EXCESSIVELY.
   ELEMENT FINAL_PART-1.609 IS DISTORTING EXCESSIVELY.
   ELEMENT FINAL_PART-1.612 IS DISTORTING EXCESSIVELY.
   ELEMENT FINAL_PART-1.614 IS DISTORTING EXCESSIVELY.
   ELEMENT FINAL_PART-1.654 IS DISTORTING EXCESSIVELY.
   ELEMENT FINAL_PART-1.656 IS DISTORTING EXCESSIVELY.
   ELEMENT FINAL_PART-1.658 IS DISTORTING EXCESSIVELY.
   ELEMENT FINAL_PART-1.659 IS DISTORTING EXCESSIVELY.
   ELEMENT FINAL_PART-1.661 IS DISTORTING EXCESSIVELY.
   ELEMENT FINAL_PART-1.662 IS DISTORTING EXCESSIVELY.
   ELEMENT FINAL_PART-1.664 IS DISTORTING EXCESSIVELY.
   ELEMENT FINAL_PART-1.667 IS DISTORTING EXCESSIVELY.
   ELEMENT FINAL_PART-1.669 IS DISTORTING EXCESSIVELY.
   ELEMENT FINAL_PART-1.709 IS DISTORTING EXCESSIVELY.
   ELEMENT FINAL_PART-1.711 IS DISTORTING EXCESSIVELY.
   ELEMENT FINAL_PART-1.713 IS DISTORTING EXCESSIVELY.
   ELEMENT FINAL_PART-1.714 IS DISTORTING EXCESSIVELY.
   ELEMENT FINAL_PART-1.716 IS DISTORTING EXCESSIVELY.
   ELEMENT FINAL_PART-1.774 IS DISTORTING EXCESSIVELY.
   ELEMENT FINAL_PART-1.868 IS DISTORTING EXCESSIVELY.
   ELEMENT FINAL_PART-1.869 IS DISTORTING EXCESSIVELY.
   ELEMENT FINAL_PART-1.870 IS DISTORTING EXCESSIVELY.
   ELEMENT FINAL_PART-1.871 IS DISTORTING EXCESSIVELY.
   ELEMENT FINAL_PART-1.872 IS DISTORTING EXCESSIVELY.
   ELEMENT FINAL_PART-1.873 IS DISTORTING EXCESSIVELY.
   ELEMENT FINAL_PART-1.874 IS DISTORTING EXCESSIVELY.
   ELEMENT FINAL_PART-1.875 IS DISTORTING EXCESSIVELY.
   ELEMENT FINAL_PART-1.876 IS DISTORTING EXCESSIVELY.
   ELEMENT FINAL_PART-1.877 IS DISTORTING EXCESSIVELY.
   ELEMENT FINAL_PART-1.878 IS DISTORTING EXCESSIVELY.
   ELEMENT FINAL_PART-1.879 IS DISTORTING EXCESSIVELY.
   ELEMENT FINAL_PART-1.880 IS DISTORTING EXCESSIVELY.
   ELEMENT FINAL_PART-1.881 IS DISTORTING EXCESSIVELY.
   ELEMENT FINAL_PART-1.882 IS DISTORTING EXCESSIVELY.
   ELEMENT FINAL_PART-1.883 IS DISTORTING EXCESSIVELY.
   ELEMENT FINAL_PART-1.884 IS DISTORTING EXCESSIVELY.
   ELEMENT FINAL_PART-1.885 IS DISTORTING EXCESSIVELY.
   ELEMENT FINAL_PART-1.886 IS DISTORTING EXCESSIVELY.
   ELEMENT FINAL_PART-1.887 IS DISTORTING EXCESSIVELY.
   ELEMENT FINAL_PART-1.888 IS DISTORTING EXCESSIVELY.
   ELEMENT FINAL_PART-1.889 IS DISTORTING EXCESSIVELY.
   ELEMENT FINAL_PART-1.925 IS DISTORTING EXCESSIVELY.
   ELEMENT FINAL_PART-1.926 IS DISTORTING EXCESSIVELY.
   ELEMENT FINAL_PART-1.927 IS DISTORTING EXCESSIVELY.
   ELEMENT FINAL_PART-1.928 IS DISTORTING EXCESSIVELY.
   ELEMENT FINAL_PART-1.929 IS DISTORTING EXCESSIVELY.
   ELEMENT FINAL_PART-1.930 IS DISTORTING EXCESSIVELY.
   ELEMENT FINAL_PART-1.931 IS DISTORTING EXCESSIVELY.
   ELEMENT FINAL_PART-1.932 IS DISTORTING EXCESSIVELY.
   ELEMENT FINAL_PART-1.933 IS DISTORTING EXCESSIVELY.
   ELEMENT FINAL_PART-1.934 IS DISTORTING EXCESSIVELY.
   ELEMENT FINAL_PART-1.935 IS DISTORTING EXCESSIVELY.
   ELEMENT FINAL_PART-1.936 IS DISTORTING EXCESSIVELY.
   ELEMENT FINAL_PART-1.937 IS DISTORTING EXCESSIVELY.
   ELEMENT FINAL_PART-1.938 IS DISTORTING EXCESSIVELY.
   ELEMENT FINAL_PART-1.939 IS DISTORTING EXCESSIVELY.
   ELEMENT FINAL_PART-1.940 IS DISTORTING EXCESSIVELY.
   ELEMENT FINAL_PART-1.941 IS DISTORTING EXCESSIVELY.
   ELEMENT FINAL_PART-1.942 IS DISTORTING EXCESSIVELY.
   ELEMENT FINAL_PART-1.943 IS DISTORTING EXCESSIVELY.
   ELEMENT FINAL_PART-1.944 IS DISTORTING EXCESSIVELY.
   ELEMENT FINAL_PART-1.945 IS DISTORTING EXCESSIVELY.
   ELEMENT FINAL_PART-1.946 IS DISTORTING EXCESSIVELY.
   ELEMENT FINAL_PART-1.947 IS DISTORTING EXCESSIVELY.
   ELEMENT FINAL_PART-1.948 IS DISTORTING EXCESSIVELY.
   ELEMENT FINAL_PART-1.949 IS DISTORTING EXCESSIVELY.
   ELEMENT FINAL_PART-1.951 IS DISTORTING EXCESSIVELY.
   ELEMENT FINAL_PART-1.953 IS DISTORTING EXCESSIVELY.
   ELEMENT FINAL_PART-1.955 IS DISTORTING EXCESSIVELY.
   ELEMENT FINAL_PART-1.957 IS DISTORTING EXCESSIVELY.
   ELEMENT FINAL_PART-1.959 IS DISTORTING EXCESSIVELY.
   ELEMENT FINAL_PART-1.961 IS DISTORTING EXCESSIVELY.
   ELEMENT FINAL_PART-1.963 IS DISTORTING EXCESSIVELY.
   ELEMENT FINAL_PART-1.965 IS DISTORTING EXCESSIVELY.
   ELEMENT FINAL_PART-1.967 IS DISTORTING EXCESSIVELY.
   ELEMENT FINAL_PART-1.969 IS DISTORTING EXCESSIVELY.
   ELEMENT FINAL_PART-1.971 IS DISTORTING EXCESSIVELY.
   ELEMENT FINAL_PART-1.973 IS DISTORTING EXCESSIVELY.
   ELEMENT FINAL_PART-1.975 IS DISTORTING EXCESSIVELY.
   ELEMENT FINAL_PART-1.1005 IS DISTORTING EXCESSIVELY.
   ELEMENT FINAL_PART-1.1007 IS DISTORTING EXCESSIVELY.
   ELEMENT FINAL_PART-1.1009 IS DISTORTING EXCESSIVELY.
   ELEMENT FINAL_PART-1.1011 IS DISTORTING EXCESSIVELY.
   ELEMENT FINAL_PART-1.1013 IS DISTORTING EXCESSIVELY.
   ELEMENT FINAL_PART-1.1015 IS DISTORTING EXCESSIVELY.
   ELEMENT FINAL_PART-1.1017 IS DISTORTING EXCESSIVELY.
   ELEMENT FINAL_PART-1.1019 IS DISTORTING EXCESSIVELY.
   ELEMENT FINAL_PART-1.1022 IS DISTORTING EXCESSIVELY.
   ELEMENT FINAL_PART-1.1023 IS DISTORTING EXCESSIVELY.
   ELEMENT FINAL_PART-1.1025 IS DISTORTING EXCESSIVELY.
   ELEMENT FINAL_PART-1.1027 IS DISTORTING EXCESSIVELY.
   ELEMENT FINAL_PART-1.1029 IS DISTORTING EXCESSIVELY.
   ELEMENT FINAL_PART-1.1031 IS DISTORTING EXCESSIVELY.
   ELEMENT FINAL_PART-1.1033 IS DISTORTING EXCESSIVELY.
   ELEMENT FINAL_PART-1.1035 IS DISTORTING EXCESSIVELY.
   ELEMENT FINAL_PART-1.1037 IS DISTORTING EXCESSIVELY.
   ELEMENT FINAL_PART-1.1039 IS DISTORTING EXCESSIVELY.
   ELEMENT FINAL_PART-1.1041 IS DISTORTING EXCESSIVELY.
   ELEMENT FINAL_PART-1.1043 IS DISTORTING EXCESSIVELY.
   ELEMENT FINAL_PART-1.1045 IS DISTORTING EXCESSIVELY.
   ELEMENT FINAL_PART-1.1047 IS DISTORTING EXCESSIVELY.
   ELEMENT FINAL_PART-1.1049 IS DISTORTING EXCESSIVELY.
   ELEMENT FINAL_PART-1.1079 IS DISTORTING EXCESSIVELY.
   ELEMENT FINAL_PART-1.1081 IS DISTORTING EXCESSIVELY.
   ELEMENT FINAL_PART-1.1083 IS DISTORTING EXCESSIVELY.
   ELEMENT FINAL_PART-1.1085 IS DISTORTING EXCESSIVELY.
   ELEMENT FINAL_PART-1.1087 IS DISTORTING EXCESSIVELY.
   ELEMENT FINAL_PART-1.1089 IS DISTORTING EXCESSIVELY.
   ELEMENT FINAL_PART-1.1091 IS DISTORTING EXCESSIVELY.
   ELEMENT FINAL_PART-1.1093 IS DISTORTING EXCESSIVELY.
   ELEMENT FINAL_PART-1.1096 IS DISTORTING EXCESSIVELY.
   ELEMENT FINAL_PART-1.1097 IS DISTORTING EXCESSIVELY.
   ELEMENT FINAL_PART-1.1098 IS DISTORTING EXCESSIVELY.
   ELEMENT FINAL_PART-1.1099 IS DISTORTING EXCESSIVELY.
   ELEMENT FINAL_PART-1.1100 IS DISTORTING EXCESSIVELY.
   ELEMENT FINAL_PART-1.1101 IS DISTORTING EXCESSIVELY.
   ELEMENT FINAL_PART-1.1102 IS DISTORTING EXCESSIVELY.
   ELEMENT FINAL_PART-1.1103 IS DISTORTING EXCESSIVELY.
   ELEMENT FINAL_PART-1.1104 IS DISTORTING EXCESSIVELY.
   ELEMENT FINAL_PART-1.1105 IS DISTORTING EXCESSIVELY.
   ELEMENT FINAL_PART-1.1106 IS DISTORTING EXCESSIVELY.
   ELEMENT FINAL_PART-1.1107 IS DISTORTING EXCESSIVELY.
   ELEMENT FINAL_PART-1.1108 IS DISTORTING EXCESSIVELY.
   ELEMENT FINAL_PART-1.1109 IS DISTORTING EXCESSIVELY.
   ELEMENT FINAL_PART-1.1110 IS DISTORTING EXCESSIVELY.
   ELEMENT FINAL_PART-1.1111 IS DISTORTING EXCESSIVELY.
   ELEMENT FINAL_PART-1.1112 IS DISTORTING EXCESSIVELY.
   ELEMENT FINAL_PART-1.1113 IS DISTORTING EXCESSIVELY.
   ELEMENT FINAL_PART-1.1114 IS DISTORTING EXCESSIVELY.
   ELEMENT FINAL_PART-1.1115 IS DISTORTING EXCESSIVELY.
   ELEMENT FINAL_PART-1.1116 IS DISTORTING EXCESSIVELY.
   ELEMENT FINAL_PART-1.1117 IS DISTORTING EXCESSIVELY.
   ELEMENT FINAL_PART-1.1118 IS DISTORTING EXCESSIVELY.
   ELEMENT FINAL_PART-1.1119 IS DISTORTING EXCESSIVELY.
   ELEMENT FINAL_PART-1.1120 IS DISTORTING EXCESSIVELY.
   ELEMENT FINAL_PART-1.1121 IS DISTORTING EXCESSIVELY.
   ELEMENT FINAL_PART-1.1122 IS DISTORTING EXCESSIVELY.
   ELEMENT FINAL_PART-1.1123 IS DISTORTING EXCESSIVELY.
   ELEMENT FINAL_PART-1.1124 IS DISTORTING EXCESSIVELY.
   ELEMENT FINAL_PART-1.1125 IS DISTORTING EXCESSIVELY.
   ELEMENT FINAL_PART-1.1126 IS DISTORTING EXCESSIVELY.
   ELEMENT FINAL_PART-1.1127 IS DISTORTING EXCESSIVELY.
   ELEMENT FINAL_PART-1.1128 IS DISTORTING EXCESSIVELY.
   ELEMENT FINAL_PART-1.1129 IS DISTORTING EXCESSIVELY.
   ELEMENT FINAL_PART-1.1130 IS DISTORTING EXCESSIVELY.
   ELEMENT FINAL_PART-1.1131 IS DISTORTING EXCESSIVELY.
   ELEMENT FINAL_PART-1.1132 IS DISTORTING EXCESSIVELY.
   ELEMENT FINAL_PART-1.1133 IS DISTORTING EXCESSIVELY.
   ELEMENT FINAL_PART-1.1134 IS DISTORTING EXCESSIVELY.
   ELEMENT FINAL_PART-1.1135 IS DISTORTING EXCESSIVELY.
   ELEMENT FINAL_PART-1.1136 IS DISTORTING EXCESSIVELY.
   ELEMENT FINAL_PART-1.1137 IS DISTORTING EXCESSIVELY.
   ELEMENT FINAL_PART-1.1138 IS DISTORTING EXCESSIVELY.
   ELEMENT FINAL_PART-1.1139 IS DISTORTING EXCESSIVELY.
   ELEMENT FINAL_PART-1.1140 IS DISTORTING EXCESSIVELY.
   ELEMENT FINAL_PART-1.1141 IS DISTORTING EXCESSIVELY.
   ELEMENT FINAL_PART-1.1142 IS DISTORTING EXCESSIVELY.
   ELEMENT FINAL_PART-1.1143 IS DISTORTING EXCESSIVELY.
   ELEMENT FINAL_PART-1.1144 IS DISTORTING EXCESSIVELY.
   ELEMENT FINAL_PART-1.1145 IS DISTORTING EXCESSIVELY.
   ELEMENT FINAL_PART-1.1160 IS DISTORTING EXCESSIVELY.
   ELEMENT FINAL_PART-1.1161 IS DISTORTING EXCESSIVELY.
   ELEMENT FINAL_PART-1.1162 IS DISTORTING EXCESSIVELY.
   ELEMENT FINAL_PART-1.1163 IS DISTORTING EXCESSIVELY.
   ELEMENT FINAL_PART-1.1164 IS DISTORTING EXCESSIVELY.
   ELEMENT FINAL_PART-1.1165 IS DISTORTING EXCESSIVELY.
   ELEMENT FINAL_PART-1.1166 IS DISTORTING EXCESSIVELY.
   ELEMENT FINAL_PART-1.1167 IS DISTORTING EXCESSIVELY.
   ELEMENT FINAL_PART-1.1168 IS DISTORTING EXCESSIVELY.
   ELEMENT FINAL_PART-1.1169 IS DISTORTING EXCESSIVELY.
   ELEMENT FINAL_PART-1.1170 IS DISTORTING EXCESSIVELY.
   ELEMENT FINAL_PART-1.1171 IS DISTORTING EXCESSIVELY.
   ELEMENT FINAL_PART-1.1172 IS DISTORTING EXCESSIVELY.
   ELEMENT FINAL_PART-1.1173 IS DISTORTING EXCESSIVELY.
   ELEMENT FINAL_PART-1.1174 IS DISTORTING EXCESSIVELY.
   ELEMENT FINAL_PART-1.1175 IS DISTORTING EXCESSIVELY.
   ELEMENT FINAL_PART-1.1176 IS DISTORTING EXCESSIVELY.
   ELEMENT FINAL_PART-1.1177 IS DISTORTING EXCESSIVELY.
   ELEMENT FINAL_PART-1.1178 IS DISTORTING EXCESSIVELY.
   ELEMENT FINAL_PART-1.1179 IS DISTORTING EXCESSIVELY.
   ELEMENT FINAL_PART-1.1180 IS DISTORTING EXCESSIVELY.
   ELEMENT FINAL_PART-1.1181 IS DISTORTING EXCESSIVELY.
   ELEMENT FINAL_PART-1.1182 IS DISTORTING EXCESSIVELY.
   ELEMENT FINAL_PART-1.1183 IS DISTORTING EXCESSIVELY.
   ELEMENT FINAL_PART-1.1184 IS DISTORTING EXCESSIVELY.
   ELEMENT FINAL_PART-1.1185 IS DISTORTING EXCESSIVELY.
   ELEMENT FINAL_PART-1.1186 IS DISTORTING EXCESSIVELY.
   ELEMENT FINAL_PART-1.1201 IS DISTORTING EXCESSIVELY.
   ELEMENT FINAL_PART-1.1202 IS DISTORTING EXCESSIVELY.
   ELEMENT FINAL_PART-1.1203 IS DISTORTING EXCESSIVELY.
   ELEMENT FINAL_PART-1.1204 IS DISTORTING EXCESSIVELY.
   ELEMENT FINAL_PART-1.1205 IS DISTORTING EXCESSIVELY.
   ELEMENT FINAL_PART-1.1206 IS DISTORTING EXCESSIVELY.
   ELEMENT FINAL_PART-1.1207 IS DISTORTING EXCESSIVELY.
   ELEMENT FINAL_PART-1.1208 IS DISTORTING EXCESSIVELY.
   ELEMENT FINAL_PART-1.1209 IS DISTORTING EXCESSIVELY.
   ELEMENT FINAL_PART-1.1210 IS DISTORTING EXCESSIVELY.
   ELEMENT FINAL_PART-1.1211 IS DISTORTING EXCESSIVELY.
   ELEMENT FINAL_PART-1.1212 IS DISTORTING EXCESSIVELY.
   ELEMENT FINAL_PART-1.1213 IS DISTORTING EXCESSIVELY.
   ELEMENT FINAL_PART-1.1214 IS DISTORTING EXCESSIVELY.
   ELEMENT FINAL_PART-1.1215 IS DISTORTING EXCESSIVELY.
   ELEMENT FINAL_PART-1.1216 IS DISTORTING EXCESSIVELY.
   ELEMENT FINAL_PART-1.1217 IS DISTORTING EXCESSIVELY.
   ELEMENT FINAL_PART-1.1218 IS DISTORTING EXCESSIVELY.
   ELEMENT FINAL_PART-1.1219 IS DISTORTING EXCESSIVELY.
   ELEMENT FINAL_PART-1.1220 IS DISTORTING EXCESSIVELY.
   ELEMENT FINAL_PART-1.1221 IS DISTORTING EXCESSIVELY.
   ELEMENT FINAL_PART-1.1222 IS DISTORTING EXCESSIVELY.
   ELEMENT FINAL_PART-1.1223 IS DISTORTING EXCESSIVELY.
   ELEMENT FINAL_PART-1.1224 IS DISTORTING EXCESSIVELY.
   ELEMENT FINAL_PART-1.1225 IS DISTORTING EXCESSIVELY.
   ELEMENT FINAL_PART-1.1226 IS DISTORTING EXCESSIVELY.
   ELEMENT FINAL_PART-1.1227 IS DISTORTING EXCESSIVELY.
   ELEMENT FINAL_PART-1.1228 IS DISTORTING EXCESSIVELY.
   ELEMENT FINAL_PART-1.1229 IS DISTORTING EXCESSIVELY.
   ELEMENT FINAL_PART-1.1230 IS DISTORTING EXCESSIVELY.
   ELEMENT FINAL_PART-1.1231 IS DISTORTING EXCESSIVELY.
   ELEMENT FINAL_PART-1.1232 IS DISTORTING EXCESSIVELY.
   ELEMENT FINAL_PART-1.1233 IS DISTORTING EXCESSIVELY.
   ELEMENT FINAL_PART-1.1234 IS DISTORTING EXCESSIVELY.
   ELEMENT FINAL_PART-1.1235 IS DISTORTING EXCESSIVELY.
   ELEMENT FINAL_PART-1.1236 IS DISTORTING EXCESSIVELY.
   ELEMENT FINAL_PART-1.1237 IS DISTORTING EXCESSIVELY.
   ELEMENT FINAL_PART-1.1238 IS DISTORTING EXCESSIVELY.
   ELEMENT FINAL_PART-1.1239 IS DISTORTING EXCESSIVELY.
   ELEMENT FINAL_PART-1.1240 IS DISTORTING EXCESSIVELY.
   ELEMENT FINAL_PART-1.1241 IS DISTORTING EXCESSIVELY.
   ELEMENT FINAL_PART-1.1242 IS DISTORTING EXCESSIVELY.
   ELEMENT FINAL_PART-1.1243 IS DISTORTING EXCESSIVELY.
   ELEMENT FINAL_PART-1.1244 IS DISTORTING EXCESSIVELY.
   ELEMENT FINAL_PART-1.1245 IS DISTORTING EXCESSIVELY.
   ELEMENT FINAL_PART-1.1246 IS DISTORTING EXCESSIVELY.
   ELEMENT FINAL_PART-1.1247 IS DISTORTING EXCESSIVELY.
   ELEMENT FINAL_PART-1.1248 IS DISTORTING EXCESSIVELY.
   ELEMENT FINAL_PART-1.1249 IS DISTORTING EXCESSIVELY.
   ELEMENT FINAL_PART-1.1250 IS DISTORTING EXCESSIVELY.
   ELEMENT FINAL_PART-1.1251 IS DISTORTING EXCESSIVELY.
   ELEMENT FINAL_PART-1.1252 IS DISTORTING EXCESSIVELY.
   ELEMENT FINAL_PART-1.1253 IS DISTORTING EXCESSIVELY.
   ELEMENT FINAL_PART-1.1254 IS DISTORTING EXCESSIVELY.
   ELEMENT FINAL_PART-1.1255 IS DISTORTING EXCESSIVELY.
   ELEMENT FINAL_PART-1.1256 IS DISTORTING EXCESSIVELY.
   ELEMENT FINAL_PART-1.1257 IS DISTORTING EXCESSIVELY.
   ELEMENT FINAL_PART-1.1258 IS DISTORTING EXCESSIVELY.
   ELEMENT FINAL_PART-1.1259 IS DISTORTING EXCESSIVELY.
   ELEMENT FINAL_PART-1.1260 IS DISTORTING EXCESSIVELY.
   ELEMENT FINAL_PART-1.1261 IS DISTORTING EXCESSIVELY.
   ELEMENT FINAL_PART-1.1262 IS DISTORTING EXCESSIVELY.
   ELEMENT FINAL_PART-1.1263 IS DISTORTING EXCESSIVELY.
   ELEMENT FINAL_PART-1.1264 IS DISTORTING EXCESSIVELY.
   ELEMENT FINAL_PART-1.1265 IS DISTORTING EXCESSIVELY.
   ELEMENT FINAL_PART-1.1266 IS DISTORTING EXCESSIVELY.
   ELEMENT FINAL_PART-1.1267 IS DISTORTING EXCESSIVELY.
   ELEMENT FINAL_PART-1.1268 IS DISTORTING EXCESSIVELY.
   ELEMENT FINAL_PART-1.1269 IS DISTORTING EXCESSIVELY.
   ELEMENT FINAL_PART-1.1270 IS DISTORTING EXCESSIVELY.
   ELEMENT FINAL_PART-1.1271 IS DISTORTING EXCESSIVELY.
   ELEMENT FINAL_PART-1.1272 IS DISTORTING EXCESSIVELY.
   ELEMENT FINAL_PART-1.1273 IS DISTORTING EXCESSIVELY.
   ELEMENT FINAL_PART-1.1274 IS DISTORTING EXCESSIVELY.
   ELEMENT FINAL_PART-1.1275 IS DISTORTING EXCESSIVELY.
   ELEMENT FINAL_PART-1.1276 IS DISTORTING EXCESSIVELY.
   ELEMENT FINAL_PART-1.1277 IS DISTORTING EXCESSIVELY.
   ELEMENT FINAL_PART-1.1278 IS DISTORTING EXCESSIVELY.
   ELEMENT FINAL_PART-1.1279 IS DISTORTING EXCESSIVELY.
   ELEMENT FINAL_PART-1.1280 IS DISTORTING EXCESSIVELY.
   ELEMENT FINAL_PART-1.1281 IS DISTORTING EXCESSIVELY.
   ELEMENT FINAL_PART-1.1282 IS DISTORTING EXCESSIVELY.
   ELEMENT FINAL_PART-1.1283 IS DISTORTING EXCESSIVELY.
   ELEMENT FINAL_PART-1.1284 IS DISTORTING EXCESSIVELY.
   ELEMENT FINAL_PART-1.1285 IS DISTORTING EXCESSIVELY.
   ELEMENT FINAL_PART-1.1286 IS DISTORTING EXCESSIVELY.
   ELEMENT FINAL_PART-1.1287 IS DISTORTING EXCESSIVELY.
   ELEMENT FINAL_PART-1.1288 IS DISTORTING EXCESSIVELY.
   ELEMENT FINAL_PART-1.1289 IS DISTORTING EXCESSIVELY.
   ELEMENT FINAL_PART-1.1290 IS DISTORTING EXCESSIVELY.
   ELEMENT FINAL_PART-1.1291 IS DISTORTING EXCESSIVELY.
   ELEMENT FINAL_PART-1.1292 IS DISTORTING EXCESSIVELY.
   ELEMENT FINAL_PART-1.1293 IS DISTORTING EXCESSIVELY.
   ELEMENT FINAL_PART-1.1310 IS DISTORTING EXCESSIVELY.
   ELEMENT FINAL_PART-1.1311 IS DISTORTING EXCESSIVELY.
   ELEMENT FINAL_PART-1.1312 IS DISTORTING EXCESSIVELY.
   ELEMENT FINAL_PART-1.1313 IS DISTORTING EXCESSIVELY.
   ELEMENT FINAL_PART-1.1314 IS DISTORTING EXCESSIVELY.
   ELEMENT FINAL_PART-1.1315 IS DISTORTING EXCESSIVELY.
   ELEMENT FINAL_PART-1.1316 IS DISTORTING EXCESSIVELY.
   ELEMENT FINAL_PART-1.1317 IS DISTORTING EXCESSIVELY.
   ELEMENT FINAL_PART-1.1318 IS DISTORTING EXCESSIVELY.
   ELEMENT FINAL_PART-1.1319 IS DISTORTING EXCESSIVELY.
   ELEMENT FINAL_PART-1.1320 IS DISTORTING EXCESSIVELY.
   ELEMENT FINAL_PART-1.1321 IS DISTORTING EXCESSIVELY.
   ELEMENT FINAL_PART-1.1322 IS DISTORTING EXCESSIVELY.
   ELEMENT FINAL_PART-1.1323 IS DISTORTING EXCESSIVELY.
   ELEMENT FINAL_PART-1.1324 IS DISTORTING EXCESSIVELY.
   ELEMENT FINAL_PART-1.1325 IS DISTORTING EXCESSIVELY.
   ELEMENT FINAL_PART-1.1326 IS DISTORTING EXCESSIVELY.
   ELEMENT FINAL_PART-1.1327 IS DISTORTING EXCESSIVELY.
   ELEMENT FINAL_PART-1.1328 IS DISTORTING EXCESSIVELY.
   ELEMENT FINAL_PART-1.1329 IS DISTORTING EXCESSIVELY.
   ELEMENT FINAL_PART-1.1330 IS DISTORTING EXCESSIVELY.
   ELEMENT FINAL_PART-1.1331 IS DISTORTING EXCESSIVELY.
   ELEMENT FINAL_PART-1.1332 IS DISTORTING EXCESSIVELY.
   ELEMENT FINAL_PART-1.1333 IS DISTORTING EXCESSIVELY.
   ELEMENT FINAL_PART-1.1334 IS DISTORTING EXCESSIVELY.
   ELEMENT FINAL_PART-1.1335 IS DISTORTING EXCESSIVELY.
   ELEMENT FINAL_PART-1.1336 IS DISTORTING EXCESSIVELY.
   ELEMENT FINAL_PART-1.1337 IS DISTORTING EXCESSIVELY.
   ELEMENT FINAL_PART-1.1338 IS DISTORTING EXCESSIVELY.
   ELEMENT FINAL_PART-1.1339 IS DISTORTING EXCESSIVELY.
   ELEMENT FINAL_PART-1.1340 IS DISTORTING EXCESSIVELY.
   ELEMENT FINAL_PART-1.1341 IS DISTORTING EXCESSIVELY.
   ELEMENT FINAL_PART-1.1342 IS DISTORTING EXCESSIVELY.
   ELEMENT FINAL_PART-1.1359 IS DISTORTING EXCESSIVELY.
   ELEMENT FINAL_PART-1.1360 IS DISTORTING EXCESSIVELY.
   ELEMENT FINAL_PART-1.1361 IS DISTORTING EXCESSIVELY.
   ELEMENT FINAL_PART-1.1362 IS DISTORTING EXCESSIVELY.
   ELEMENT FINAL_PART-1.1363 IS DISTORTING EXCESSIVELY.
   ELEMENT FINAL_PART-1.1364 IS DISTORTING EXCESSIVELY.
   ELEMENT FINAL_PART-1.1365 IS DISTORTING EXCESSIVELY.
   ELEMENT FINAL_PART-1.1366 IS DISTORTING EXCESSIVELY.
   ELEMENT FINAL_PART-1.1367 IS DISTORTING EXCESSIVELY.
   ELEMENT FINAL_PART-1.1368 IS DISTORTING EXCESSIVELY.
   ELEMENT FINAL_PART-1.1369 IS DISTORTING EXCESSIVELY.
   ELEMENT FINAL_PART-1.1370 IS DISTORTING EXCESSIVELY.
   ELEMENT FINAL_PART-1.1371 IS DISTORTING EXCESSIVELY.
   ELEMENT FINAL_PART-1.1372 IS DISTORTING EXCESSIVELY.
   ELEMENT FINAL_PART-1.1373 IS DISTORTING EXCESSIVELY.
   ELEMENT FINAL_PART-1.1374 IS DISTORTING EXCESSIVELY.
   ELEMENT FINAL_PART-1.1375 IS DISTORTING EXCESSIVELY.
   ELEMENT FINAL_PART-1.1376 IS DISTORTING EXCESSIVELY.
   ELEMENT FINAL_PART-1.1377 IS DISTORTING EXCESSIVELY.
   ELEMENT FINAL_PART-1.1378 IS DISTORTING EXCESSIVELY.
   ELEMENT FINAL_PART-1.1379 IS DISTORTING EXCESSIVELY.
   ELEMENT FINAL_PART-1.1380 IS DISTORTING EXCESSIVELY.
   ELEMENT FINAL_PART-1.1381 IS DISTORTING EXCESSIVELY.
   ELEMENT FINAL_PART-1.1382 IS DISTORTING EXCESSIVELY.
   ELEMENT FINAL_PART-1.1383 IS DISTORTING EXCESSIVELY.
   ELEMENT FINAL_PART-1.1384 IS DISTORTING EXCESSIVELY.
   ELEMENT FINAL_PART-1.1385 IS DISTORTING EXCESSIVELY.
   ELEMENT FINAL_PART-1.1386 IS DISTORTING EXCESSIVELY.
   ELEMENT FINAL_PART-1.1387 IS DISTORTING EXCESSIVELY.
   ELEMENT FINAL_PART-1.1388 IS DISTORTING EXCESSIVELY.
   ELEMENT FINAL_PART-1.1389 IS DISTORTING EXCESSIVELY.
   ELEMENT FINAL_PART-1.1390 IS DISTORTING EXCESSIVELY.
   ELEMENT FINAL_PART-1.1391 IS DISTORTING EXCESSIVELY.
   ELEMENT FINAL_PART-1.1392 IS DISTORTING EXCESSIVELY.
   ELEMENT FINAL_PART-1.1393 IS DISTORTING EXCESSIVELY.
   ELEMENT FINAL_PART-1.1394 IS DISTORTING EXCESSIVELY.
   ELEMENT FINAL_PART-1.1395 IS DISTORTING EXCESSIVELY.
   ELEMENT FINAL_PART-1.1396 IS DISTORTING EXCESSIVELY.
   ELEMENT FINAL_PART-1.1397 IS DISTORTING EXCESSIVELY.
   ELEMENT FINAL_PART-1.1398 IS DISTORTING EXCESSIVELY.
   ELEMENT FINAL_PART-1.1399 IS DISTORTING EXCESSIVELY.
   ELEMENT FINAL_PART-1.1400 IS DISTORTING EXCESSIVELY.
   ELEMENT FINAL_PART-1.1401 IS DISTORTING EXCESSIVELY.
   ELEMENT FINAL_PART-1.1402 IS DISTORTING EXCESSIVELY.
   ELEMENT FINAL_PART-1.1403 IS DISTORTING EXCESSIVELY.
   ELEMENT FINAL_PART-1.1404 IS DISTORTING EXCESSIVELY.
   ELEMENT FINAL_PART-1.1406 IS DISTORTING EXCESSIVELY.
   ELEMENT FINAL_PART-1.1408 IS DISTORTING EXCESSIVELY.
   ELEMENT FINAL_PART-1.1410 IS DISTORTING EXCESSIVELY.
   ELEMENT FINAL_PART-1.1412 IS DISTORTING EXCESSIVELY.
   ELEMENT FINAL_PART-1.1414 IS DISTORTING EXCESSIVELY.
   ELEMENT FINAL_PART-1.1416 IS DISTORTING EXCESSIVELY.
   ELEMENT FINAL_PART-1.1418 IS DISTORTING EXCESSIVELY.
   ELEMENT FINAL_PART-1.1419 IS DISTORTING EXCESSIVELY.
   ELEMENT FINAL_PART-1.1420 IS DISTORTING EXCESSIVELY.
   ELEMENT FINAL_PART-1.1422 IS DISTORTING EXCESSIVELY.
   ELEMENT FINAL_PART-1.1424 IS DISTORTING EXCESSIVELY.
   ELEMENT FINAL_PART-1.1425 IS DISTORTING EXCESSIVELY.
   ELEMENT FINAL_PART-1.1426 IS DISTORTING EXCESSIVELY.
   ELEMENT FINAL_PART-1.1427 IS DISTORTING EXCESSIVELY.
   ELEMENT FINAL_PART-1.1428 IS DISTORTING EXCESSIVELY.
   ELEMENT FINAL_PART-1.1429 IS DISTORTING EXCESSIVELY.
   ELEMENT FINAL_PART-1.1430 IS DISTORTING EXCESSIVELY.
   ELEMENT FINAL_PART-1.1431 IS DISTORTING EXCESSIVELY.
   ELEMENT FINAL_PART-1.1432 IS DISTORTING EXCESSIVELY.
   ELEMENT FINAL_PART-1.1433 IS DISTORTING EXCESSIVELY.
   ELEMENT FINAL_PART-1.1434 IS DISTORTING EXCESSIVELY.
   ELEMENT FINAL_PART-1.1435 IS DISTORTING EXCESSIVELY.
   ELEMENT FINAL_PART-1.1436 IS DISTORTING EXCESSIVELY.
   ELEMENT FINAL_PART-1.1437 IS DISTORTING EXCESSIVELY.
   ELEMENT FINAL_PART-1.1438 IS DISTORTING EXCESSIVELY.
   ELEMENT FINAL_PART-1.1439 IS DISTORTING EXCESSIVELY.
   ELEMENT FINAL_PART-1.1440 IS DISTORTING EXCESSIVELY.
   ELEMENT FINAL_PART-1.1442 IS DISTORTING EXCESSIVELY.
   ELEMENT FINAL_PART-1.1443 IS DISTORTING EXCESSIVELY.
   ELEMENT FINAL_PART-1.1444 IS DISTORTING EXCESSIVELY.
   ELEMENT FINAL_PART-1.1445 IS DISTORTING EXCESSIVELY.
   ELEMENT FINAL_PART-1.1446 IS DISTORTING EXCESSIVELY.
   ELEMENT FINAL_PART-1.1447 IS DISTORTING EXCESSIVELY.
   ELEMENT FINAL_PART-1.1448 IS DISTORTING EXCESSIVELY.
   ELEMENT FINAL_PART-1.1449 IS DISTORTING EXCESSIVELY.
   ELEMENT FINAL_PART-1.1450 IS DISTORTING EXCESSIVELY.
   ELEMENT FINAL_PART-1.1452 IS DISTORTING EXCESSIVELY.
   ELEMENT FINAL_PART-1.1453 IS DISTORTING EXCESSIVELY.
   ELEMENT FINAL_PART-1.1455 IS DISTORTING EXCESSIVELY.
   ELEMENT FINAL_PART-1.1456 IS DISTORTING EXCESSIVELY.
   ELEMENT FINAL_PART-1.1457 IS DISTORTING EXCESSIVELY.
   ELEMENT FINAL_PART-1.1458 IS DISTORTING EXCESSIVELY.
   ELEMENT FINAL_PART-1.1459 IS DISTORTING EXCESSIVELY.
   ELEMENT FINAL_PART-1.1460 IS DISTORTING EXCESSIVELY.
   ELEMENT FINAL_PART-1.1461 IS DISTORTING EXCESSIVELY.
   ELEMENT FINAL_PART-1.1462 IS DISTORTING EXCESSIVELY.
   ELEMENT FINAL_PART-1.1463 IS DISTORTING EXCESSIVELY.
   ELEMENT FINAL_PART-1.1464 IS DISTORTING EXCESSIVELY.
   ELEMENT FINAL_PART-1.1465 IS DISTORTING EXCESSIVELY.
   ELEMENT FINAL_PART-1.1466 IS DISTORTING EXCESSIVELY.
   ELEMENT FINAL_PART-1.1467 IS DISTORTING EXCESSIVELY.
   ELEMENT FINAL_PART-1.1468 IS DISTORTING EXCESSIVELY.
   ELEMENT FINAL_PART-1.1469 IS DISTORTING EXCESSIVELY.
   ELEMENT FINAL_PART-1.1470 IS DISTORTING EXCESSIVELY.
   ELEMENT FINAL_PART-1.1471 IS DISTORTING EXCESSIVELY.
   ELEMENT FINAL_PART-1.1472 IS DISTORTING EXCESSIVELY.
   ELEMENT FINAL_PART-1.1473 IS DISTORTING EXCESSIVELY.
   ELEMENT FINAL_PART-1.1474 IS DISTORTING EXCESSIVELY.
   ELEMENT FINAL_PART-1.1475 IS DISTORTING EXCESSIVELY.
   ELEMENT FINAL_PART-1.1476 IS DISTORTING EXCESSIVELY.
   ELEMENT FINAL_PART-1.1477 IS DISTORTING EXCESSIVELY.
   ELEMENT FINAL_PART-1.1478 IS DISTORTING EXCESSIVELY.
   ELEMENT FINAL_PART-1.1479 IS DISTORTING EXCESSIVELY.
   ELEMENT FINAL_PART-1.1480 IS DISTORTING EXCESSIVELY.
   ELEMENT FINAL_PART-1.1481 IS DISTORTING EXCESSIVELY.
   ELEMENT FINAL_PART-1.1482 IS DISTORTING EXCESSIVELY.
   ELEMENT FINAL_PART-1.1483 IS DISTORTING EXCESSIVELY.
   ELEMENT FINAL_PART-1.1484 IS DISTORTING EXCESSIVELY.
   ELEMENT FINAL_PART-1.1485 IS DISTORTING EXCESSIVELY.
   ELEMENT FINAL_PART-1.1486 IS DISTORTING EXCESSIVELY.
   ELEMENT FINAL_PART-1.1487 IS DISTORTING EXCESSIVELY.
   ELEMENT FINAL_PART-1.1488 IS DISTORTING EXCESSIVELY.
   ELEMENT FINAL_PART-1.1489 IS DISTORTING EXCESSIVELY.
   ELEMENT FINAL_PART-1.1490 IS DISTORTING EXCESSIVELY.
   ELEMENT FINAL_PART-1.1491 IS DISTORTING EXCESSIVELY.
   ELEMENT FINAL_PART-1.1492 IS DISTORTING EXCESSIVELY.
   ELEMENT FINAL_PART-1.1493 IS DISTORTING EXCESSIVELY.
   ELEMENT FINAL_PART-1.1494 IS DISTORTING EXCESSIVELY.
   ELEMENT FINAL_PART-1.1495 IS DISTORTING EXCESSIVELY.
   ELEMENT FINAL_PART-1.1496 IS DISTORTING EXCESSIVELY.
   ELEMENT FINAL_PART-1.1498 IS DISTORTING EXCESSIVELY.
   ELEMENT FINAL_PART-1.1500 IS DISTORTING EXCESSIVELY.
   ELEMENT FINAL_PART-1.1502 IS DISTORTING EXCESSIVELY.
   ELEMENT FINAL_PART-1.1505 IS DISTORTING EXCESSIVELY.
   ELEMENT FINAL_PART-1.1507 IS DISTORTING EXCESSIVELY.
   ELEMENT FINAL_PART-1.1509 IS DISTORTING EXCESSIVELY.
   ELEMENT FINAL_PART-1.1511 IS DISTORTING EXCESSIVELY.
   ELEMENT FINAL_PART-1.1513 IS DISTORTING EXCESSIVELY.
   ELEMENT FINAL_PART-1.1515 IS DISTORTING EXCESSIVELY.
   ELEMENT FINAL_PART-1.1516 IS DISTORTING EXCESSIVELY.
   ELEMENT FINAL_PART-1.1517 IS DISTORTING EXCESSIVELY.
   ELEMENT FINAL_PART-1.1518 IS DISTORTING EXCESSIVELY.
   ELEMENT FINAL_PART-1.1519 IS DISTORTING EXCESSIVELY.
   ELEMENT FINAL_PART-1.1520 IS DISTORTING EXCESSIVELY.
   ELEMENT FINAL_PART-1.1521 IS DISTORTING EXCESSIVELY.
   ELEMENT FINAL_PART-1.1522 IS DISTORTING EXCESSIVELY.
   ELEMENT FINAL_PART-1.1523 IS DISTORTING EXCESSIVELY.
   ELEMENT FINAL_PART-1.1525 IS DISTORTING EXCESSIVELY.
   ELEMENT FINAL_PART-1.1526 IS DISTORTING EXCESSIVELY.
   ELEMENT FINAL_PART-1.1527 IS DISTORTING EXCESSIVELY.
   ELEMENT FINAL_PART-1.1528 IS DISTORTING EXCESSIVELY.
   ELEMENT FINAL_PART-1.1529 IS DISTORTING EXCESSIVELY.
   ELEMENT FINAL_PART-1.1530 IS DISTORTING EXCESSIVELY.
   ELEMENT FINAL_PART-1.1531 IS DISTORTING EXCESSIVELY.
   ELEMENT FINAL_PART-1.1532 IS DISTORTING EXCESSIVELY.
   ELEMENT FINAL_PART-1.1533 IS DISTORTING EXCESSIVELY.
   ELEMENT FINAL_PART-1.1535 IS DISTORTING EXCESSIVELY.
   ELEMENT FINAL_PART-1.1536 IS DISTORTING EXCESSIVELY.
   ELEMENT FINAL_PART-1.1537 IS DISTORTING EXCESSIVELY.
   ELEMENT FINAL_PART-1.1538 IS DISTORTING EXCESSIVELY.
   ELEMENT FINAL_PART-1.1539 IS DISTORTING EXCESSIVELY.
   ELEMENT FINAL_PART-1.1540 IS DISTORTING EXCESSIVELY.
   ELEMENT FINAL_PART-1.1541 IS DISTORTING EXCESSIVELY.
   ELEMENT FINAL_PART-1.1543 IS DISTORTING EXCESSIVELY.
   ELEMENT FINAL_PART-1.1544 IS DISTORTING EXCESSIVELY.
   ELEMENT FINAL_PART-1.1545 IS DISTORTING EXCESSIVELY.
   ELEMENT FINAL_PART-1.1546 IS DISTORTING EXCESSIVELY.
   ELEMENT FINAL_PART-1.1547 IS DISTORTING EXCESSIVELY.
   ELEMENT FINAL_PART-1.1549 IS DISTORTING EXCESSIVELY.
   ELEMENT FINAL_PART-1.1550 IS DISTORTING EXCESSIVELY.
   ELEMENT FINAL_PART-1.1551 IS DISTORTING EXCESSIVELY.
   ELEMENT FINAL_PART-1.1552 IS DISTORTING EXCESSIVELY.
   ELEMENT FINAL_PART-1.1553 IS DISTORTING EXCESSIVELY.
   ELEMENT FINAL_PART-1.1554 IS DISTORTING EXCESSIVELY.
   ELEMENT FINAL_PART-1.1556 IS DISTORTING EXCESSIVELY.
   ELEMENT FINAL_PART-1.1557 IS DISTORTING EXCESSIVELY.
   ELEMENT FINAL_PART-1.1558 IS DISTORTING EXCESSIVELY.
   ELEMENT FINAL_PART-1.1559 IS DISTORTING EXCESSIVELY.
   ELEMENT FINAL_PART-1.1560 IS DISTORTING EXCESSIVELY.
   ELEMENT FINAL_PART-1.1561 IS DISTORTING EXCESSIVELY.
   ELEMENT FINAL_PART-1.1562 IS DISTORTING EXCESSIVELY.
   ELEMENT FINAL_PART-1.1563 IS DISTORTING EXCESSIVELY.
   ELEMENT FINAL_PART-1.1564 IS DISTORTING EXCESSIVELY.
   ELEMENT FINAL_PART-1.1565 IS DISTORTING EXCESSIVELY.
   ELEMENT FINAL_PART-1.1566 IS DISTORTING EXCESSIVELY.
   ELEMENT FINAL_PART-1.1567 IS DISTORTING EXCESSIVELY.
   ELEMENT FINAL_PART-1.1568 IS DISTORTING EXCESSIVELY.
   ELEMENT FINAL_PART-1.1569 IS DISTORTING EXCESSIVELY.
   ELEMENT FINAL_PART-1.1570 IS DISTORTING EXCESSIVELY.
   ELEMENT FINAL_PART-1.1571 IS DISTORTING EXCESSIVELY.
   ELEMENT FINAL_PART-1.1572 IS DISTORTING EXCESSIVELY.
   ELEMENT FINAL_PART-1.1574 IS DISTORTING EXCESSIVELY.
   ELEMENT FINAL_PART-1.1575 IS DISTORTING EXCESSIVELY.
   ELEMENT FINAL_PART-1.1576 IS DISTORTING EXCESSIVELY.
   ELEMENT FINAL_PART-1.1577 IS DISTORTING EXCESSIVELY.
   ELEMENT FINAL_PART-1.1578 IS DISTORTING EXCESSIVELY.
   ELEMENT FINAL_PART-1.1579 IS DISTORTING EXCESSIVELY.
   ELEMENT FINAL_PART-1.1580 IS DISTORTING EXCESSIVELY.
   ELEMENT FINAL_PART-1.1581 IS DISTORTING EXCESSIVELY.
   ELEMENT FINAL_PART-1.1582 IS DISTORTING EXCESSIVELY.
   ELEMENT FINAL_PART-1.1584 IS DISTORTING EXCESSIVELY.
   ELEMENT FINAL_PART-1.1585 IS DISTORTING EXCESSIVELY.
   ELEMENT FINAL_PART-1.1586 IS DISTORTING EXCESSIVELY.
   ELEMENT FINAL_PART-1.1587 IS DISTORTING EXCESSIVELY.
   ELEMENT FINAL_PART-1.1588 IS DISTORTING EXCESSIVELY.
   ELEMENT FINAL_PART-1.1589 IS DISTORTING EXCESSIVELY.
   ELEMENT FINAL_PART-1.1590 IS DISTORTING EXCESSIVELY.
   ELEMENT FINAL_PART-1.1591 IS DISTORTING EXCESSIVELY.
   ELEMENT FINAL_PART-1.1592 IS DISTORTING EXCESSIVELY.
   ELEMENT FINAL_PART-1.1594 IS DISTORTING EXCESSIVELY.
   ELEMENT FINAL_PART-1.1595 IS DISTORTING EXCESSIVELY.
   ELEMENT FINAL_PART-1.1596 IS DISTORTING EXCESSIVELY.
   ELEMENT FINAL_PART-1.1597 IS DISTORTING EXCESSIVELY.
   ELEMENT FINAL_PART-1.1599 IS DISTORTING EXCESSIVELY.
   ELEMENT FINAL_PART-1.1601 IS DISTORTING EXCESSIVELY.
   ELEMENT FINAL_PART-1.1652 IS DISTORTING EXCESSIVELY.
   ELEMENT FINAL_PART-1.1681 IS DISTORTING EXCESSIVELY.
   ELEMENT FINAL_PART-1.1702 IS DISTORTING EXCESSIVELY.
   ELEMENT FINAL_PART-1.1811 IS DISTORTING EXCESSIVELY.
   ELEMENT FINAL_PART-1.1867 IS DISTORTING EXCESSIVELY.
   ELEMENT FINAL_PART-1.2002 IS DISTORTING EXCESSIVELY.
   ELEMENT FINAL_PART-1.2170 IS DISTORTING EXCESSIVELY.
   ELEMENT FINAL_PART-1.2171 IS DISTORTING EXCESSIVELY.
   ELEMENT FINAL_PART-1.2199 IS DISTORTING EXCESSIVELY.
   ELEMENT FINAL_PART-1.2200 IS DISTORTING EXCESSIVELY.
   ELEMENT FINAL_PART-1.2769 IS DISTORTING EXCESSIVELY.
   ELEMENT FINAL_PART-1.2797 IS DISTORTING EXCESSIVELY.
   ELEMENT FINAL_PART-1.4619 IS DISTORTING EXCESSIVELY.
   ELEMENT FINAL_PART-1.4646 IS DISTORTING EXCESSIVELY.
   ELEMENT FINAL_PART-1.4757 IS DISTORTING EXCESSIVELY.
   ELEMENT FINAL_PART-1.4778 IS DISTORTING EXCESSIVELY.
   ELEMENT FINAL_PART-1.4806 IS DISTORTING EXCESSIVELY.
   ELEMENT FINAL_PART-1.4833 IS DISTORTING EXCESSIVELY.
   ELEMENT FINAL_PART-1.5163 IS DISTORTING EXCESSIVELY.
   ELEMENT FINAL_PART-1.5164 IS DISTORTING EXCESSIVELY.
   ELEMENT FINAL_PART-1.5192 IS DISTORTING EXCESSIVELY.
   ELEMENT FINAL_PART-1.5193 IS DISTORTING EXCESSIVELY.
   ELEMENT FINAL_PART-1.5765 IS DISTORTING EXCESSIVELY.
   ELEMENT FINAL_PART-1.5793 IS DISTORTING EXCESSIVELY.
   ELEMENT FINAL_PART-1.7674 IS DISTORTING EXCESSIVELY.
   ELEMENT FINAL_PART-1.7882 IS DISTORTING EXCESSIVELY.
   ELEMENT FINAL_PART-1.7894 IS DISTORTING EXCESSIVELY.
   ELEMENT FINAL_PART-1.7919 IS DISTORTING EXCESSIVELY.
   ELEMENT FINAL_PART-1.7920 IS DISTORTING EXCESSIVELY.
   ELEMENT FINAL_PART-1.8242 IS DISTORTING EXCESSIVELY.
   ELEMENT FINAL_PART-1.9253 IS DISTORTING EXCESSIVELY.
   ELEMENT FINAL_PART-1.9357 IS DISTORTING EXCESSIVELY.
   ELEMENT FINAL_PART-1.9499 IS DISTORTING EXCESSIVELY.
   ELEMENT FINAL_PART-1.9513 IS DISTORTING EXCESSIVELY.
   ELEMENT FINAL_PART-1.9514 IS DISTORTING EXCESSIVELY.
   ELEMENT FINAL_PART-1.9837 IS DISTORTING EXCESSIVELY.
   ELEMENT FINAL_PART-1.10885 IS DISTORTING EXCESSIVELY.
   ELEMENT FINAL_PART-1.10886 IS DISTORTING EXCESSIVELY.
   ELEMENT FINAL_PART-1.10947 IS DISTORTING EXCESSIVELY.
   ELEMENT FINAL_PART-1.11119 IS DISTORTING EXCESSIVELY.
   ELEMENT FINAL_PART-1.11180 IS DISTORTING EXCESSIVELY.
   ELEMENT FINAL_PART-1.11393 IS DISTORTING EXCESSIVELY.
   ELEMENT FINAL_PART-1.11624 IS DISTORTING EXCESSIVELY.
   ELEMENT FINAL_PART-1.11625 IS DISTORTING EXCESSIVELY.
   ELEMENT FINAL_PART-1.11663 IS DISTORTING EXCESSIVELY.
   ELEMENT FINAL_PART-1.11664 IS DISTORTING EXCESSIVELY.
   ELEMENT FINAL_PART-1.12462 IS DISTORTING EXCESSIVELY.
   ELEMENT FINAL_PART-1.12500 IS DISTORTING EXCESSIVELY.
   ELEMENT FINAL_PART-1.15013 IS DISTORTING EXCESSIVELY.
   ELEMENT FINAL_PART-1.15037 IS DISTORTING EXCESSIVELY.
   ELEMENT FINAL_PART-1.15168 IS DISTORTING EXCESSIVELY.
   ELEMENT FINAL_PART-1.15347 IS DISTORTING EXCESSIVELY.
   ELEMENT FINAL_PART-1.15364 IS DISTORTING EXCESSIVELY.
   ELEMENT FINAL_PART-1.15457 IS DISTORTING EXCESSIVELY.
   ELEMENT FINAL_PART-1.15819 IS DISTORTING EXCESSIVELY.
   ELEMENT FINAL_PART-1.15820 IS DISTORTING EXCESSIVELY.
   ELEMENT FINAL_PART-1.15858 IS DISTORTING EXCESSIVELY.
   ELEMENT FINAL_PART-1.15859 IS DISTORTING EXCESSIVELY.
   ELEMENT FINAL_PART-1.16667 IS DISTORTING EXCESSIVELY.
   ELEMENT FINAL_PART-1.16705 IS DISTORTING EXCESSIVELY.
   ELEMENT FINAL_PART-1.19248 IS DISTORTING EXCESSIVELY.
   ELEMENT FINAL_PART-1.19433 IS DISTORTING EXCESSIVELY.
   ELEMENT FINAL_PART-1.19482 IS DISTORTING EXCESSIVELY.
   ELEMENT FINAL_PART-1.20070 IS DISTORTING EXCESSIVELY.
   ELEMENT FINAL_PART-1.20122 IS DISTORTING EXCESSIVELY.
   ELEMENT FINAL_PART-1.20134 IS DISTORTING EXCESSIVELY.
   ELEMENT FINAL_PART-1.20983 IS DISTORTING EXCESSIVELY.
   ELEMENT FINAL_PART-1.20984 IS DISTORTING EXCESSIVELY.
   ELEMENT FINAL_PART-1.21036 IS DISTORTING EXCESSIVELY.
   ELEMENT FINAL_PART-1.21037 IS DISTORTING EXCESSIVELY.
   ELEMENT FINAL_PART-1.22774 IS DISTORTING EXCESSIVELY.
   ELEMENT FINAL_PART-1.22826 IS DISTORTING EXCESSIVELY.
   ELEMENT FINAL_PART-1.28326 IS DISTORTING EXCESSIVELY.
   ELEMENT FINAL_PART-1.28753 IS DISTORTING EXCESSIVELY.
   ELEMENT FINAL_PART-1.28895 IS DISTORTING EXCESSIVELY.
   ELEMENT FINAL_PART-1.28896 IS DISTORTING EXCESSIVELY.
   ELEMENT FINAL_PART-1.29087 IS DISTORTING EXCESSIVELY.
   ELEMENT FINAL_PART-1.29313 IS DISTORTING EXCESSIVELY.
   ELEMENT FINAL_PART-1.29937 IS DISTORTING EXCESSIVELY.
   ELEMENT FINAL_PART-1.29938 IS DISTORTING EXCESSIVELY.
   ELEMENT FINAL_PART-1.29990 IS DISTORTING EXCESSIVELY.
   ELEMENT FINAL_PART-1.29991 IS DISTORTING EXCESSIVELY.
   ELEMENT FINAL_PART-1.31732 IS DISTORTING EXCESSIVELY.
   ELEMENT FINAL_PART-1.31784 IS DISTORTING EXCESSIVELY.
   ELEMENT FINAL_PART-1.37270 IS DISTORTING EXCESSIVELY.
   ELEMENT FINAL_PART-1.37271 IS DISTORTING EXCESSIVELY.
   ELEMENT FINAL_PART-1.37382 IS DISTORTING EXCESSIVELY.
   ELEMENT FINAL_PART-1.37400 IS DISTORTING EXCESSIVELY.
   ELEMENT FINAL_PART-1.37408 IS DISTORTING EXCESSIVELY.
   ELEMENT FINAL_PART-1.37409 IS DISTORTING EXCESSIVELY.
   ELEMENT FINAL_PART-1.37410 IS DISTORTING EXCESSIVELY.
   ELEMENT FINAL_PART-1.37413 IS DISTORTING EXCESSIVELY.
   ELEMENT FINAL_PART-1.37414 IS DISTORTING EXCESSIVELY.
   ELEMENT FINAL_PART-1.37415 IS DISTORTING EXCESSIVELY.
   ELEMENT FINAL_PART-1.37416 IS DISTORTING EXCESSIVELY.
   ELEMENT FINAL_PART-1.37417 IS DISTORTING EXCESSIVELY.
   ELEMENT FINAL_PART-1.37537 IS DISTORTING EXCESSIVELY.
   ELEMENT FINAL_PART-1.37538 IS DISTORTING EXCESSIVELY.
   ELEMENT FINAL_PART-1.37596 IS DISTORTING EXCESSIVELY.
   ELEMENT FINAL_PART-1.37598 IS DISTORTING EXCESSIVELY.
   ELEMENT FINAL_PART-1.37792 IS DISTORTING EXCESSIVELY.
   ELEMENT FINAL_PART-1.37793 IS DISTORTING EXCESSIVELY.
   ELEMENT FINAL_PART-1.37794 IS DISTORTING EXCESSIVELY.
   ELEMENT FINAL_PART-1.37962 IS DISTORTING EXCESSIVELY.
   ELEMENT FINAL_PART-1.37963 IS DISTORTING EXCESSIVELY.
   ELEMENT FINAL_PART-1.37973 IS DISTORTING EXCESSIVELY.
   ELEMENT FINAL_PART-1.38154 IS DISTORTING EXCESSIVELY.
   ELEMENT FINAL_PART-1.38171 IS DISTORTING EXCESSIVELY.
   ELEMENT FINAL_PART-1.38190 IS DISTORTING EXCESSIVELY.
   ELEMENT FINAL_PART-1.38191 IS DISTORTING EXCESSIVELY.
   ELEMENT FINAL_PART-1.38192 IS DISTORTING EXCESSIVELY.
   ELEMENT FINAL_PART-1.38235 IS DISTORTING EXCESSIVELY.
   ELEMENT FINAL_PART-1.38236 IS DISTORTING EXCESSIVELY.
   ELEMENT FINAL_PART-1.38237 IS DISTORTING EXCESSIVELY.
   ELEMENT FINAL_PART-1.38303 IS DISTORTING EXCESSIVELY.
   ELEMENT FINAL_PART-1.38307 IS DISTORTING EXCESSIVELY.
   ELEMENT FINAL_PART-1.38316 IS DISTORTING EXCESSIVELY.
   ELEMENT FINAL_PART-1.38364 IS DISTORTING EXCESSIVELY.
   ELEMENT FINAL_PART-1.38365 IS DISTORTING EXCESSIVELY.
   ELEMENT FINAL_PART-1.38374 IS DISTORTING EXCESSIVELY.
   ELEMENT FINAL_PART-1.38378 IS DISTORTING EXCESSIVELY.
   ELEMENT FINAL_PART-1.38594 IS DISTORTING EXCESSIVELY.
   ELEMENT FINAL_PART-1.38822 IS DISTORTING EXCESSIVELY.
   ELEMENT FINAL_PART-1.38938 IS DISTORTING EXCESSIVELY.
   ELEMENT FINAL_PART-1.39705 IS DISTORTING EXCESSIVELY.
   ELEMENT FINAL_PART-1.39706 IS DISTORTING EXCESSIVELY.
   ELEMENT FINAL_PART-1.39707 IS DISTORTING EXCESSIVELY.
   ELEMENT FINAL_PART-1.39708 IS DISTORTING EXCESSIVELY.
   ELEMENT FINAL_PART-1.39777 IS DISTORTING EXCESSIVELY.
   ELEMENT FINAL_PART-1.39778 IS DISTORTING EXCESSIVELY.
   ELEMENT FINAL_PART-1.40020 IS DISTORTING EXCESSIVELY.
   ELEMENT FINAL_PART-1.40024 IS DISTORTING EXCESSIVELY.
   ELEMENT FINAL_PART-1.40026 IS DISTORTING EXCESSIVELY.
   ELEMENT FINAL_PART-1.40148 IS DISTORTING EXCESSIVELY.
   ELEMENT FINAL_PART-1.40149 IS DISTORTING EXCESSIVELY.
   ELEMENT FINAL_PART-1.40404 IS DISTORTING EXCESSIVELY.
   ELEMENT FINAL_PART-1.40405 IS DISTORTING EXCESSIVELY.
   ELEMENT FINAL_PART-1.40846 IS DISTORTING EXCESSIVELY.
   ELEMENT FINAL_PART-1.40847 IS DISTORTING EXCESSIVELY.
   ELEMENT FINAL_PART-1.40848 IS DISTORTING EXCESSIVELY.
   ELEMENT FINAL_PART-1.40976 IS DISTORTING EXCESSIVELY.
   ELEMENT FINAL_PART-1.40985 IS DISTORTING EXCESSIVELY.
   ELEMENT FINAL_PART-1.40989 IS DISTORTING EXCESSIVELY.
   ELEMENT FINAL_PART-1.41205 IS DISTORTING EXCESSIVELY.
   ELEMENT FINAL_PART-1.42317 IS DISTORTING EXCESSIVELY.
   ELEMENT FINAL_PART-1.42318 IS DISTORTING EXCESSIVELY.
   ELEMENT FINAL_PART-1.42388 IS DISTORTING EXCESSIVELY.
   ELEMENT FINAL_PART-1.42759 IS DISTORTING EXCESSIVELY.
   ELEMENT FINAL_PART-1.42794 IS DISTORTING EXCESSIVELY.
   ELEMENT FINAL_PART-1.43015 IS DISTORTING EXCESSIVELY.
   ELEMENT FINAL_PART-1.43016 IS DISTORTING EXCESSIVELY.
   ELEMENT FINAL_PART-1.43017 IS DISTORTING EXCESSIVELY.
   ELEMENT FINAL_PART-1.43456 IS DISTORTING EXCESSIVELY.
   ELEMENT FINAL_PART-1.43457 IS DISTORTING EXCESSIVELY.
   ELEMENT FINAL_PART-1.43458 IS DISTORTING EXCESSIVELY.
   ELEMENT FINAL_PART-1.44927 IS DISTORTING EXCESSIVELY.
   ELEMENT FINAL_PART-1.45368 IS DISTORTING EXCESSIVELY.
   ELEMENT FINAL_PART-1.45370 IS DISTORTING EXCESSIVELY.
   ELEMENT FINAL_PART-1.45405 IS DISTORTING EXCESSIVELY.
   ELEMENT FINAL_PART-1.45477 IS DISTORTING EXCESSIVELY.
   ELEMENT FINAL_PART-1.45626 IS DISTORTING EXCESSIVELY.
   ELEMENT FINAL_PART-1.45627 IS DISTORTING EXCESSIVELY.
   ELEMENT FINAL_PART-1.45628 IS DISTORTING EXCESSIVELY.
   ELEMENT FINAL_PART-1.45863 IS DISTORTING EXCESSIVELY.
   ELEMENT FINAL_PART-1.45870 IS DISTORTING EXCESSIVELY.
   ELEMENT FINAL_PART-1.46067 IS DISTORTING EXCESSIVELY.
   ELEMENT FINAL_PART-1.46068 IS DISTORTING EXCESSIVELY.
   ELEMENT FINAL_PART-1.46069 IS DISTORTING EXCESSIVELY.
   ELEMENT FINAL_PART-1.46122 IS DISTORTING EXCESSIVELY.
   ELEMENT FINAL_PART-1.46621 IS DISTORTING EXCESSIVELY.
   ELEMENT FINAL_PART-1.47619 IS DISTORTING EXCESSIVELY.
   ELEMENT FINAL_PART-1.47620 IS DISTORTING EXCESSIVELY.
   ELEMENT FINAL_PART-1.47621 IS DISTORTING EXCESSIVELY.
   ELEMENT FINAL_PART-1.47629 IS DISTORTING EXCESSIVELY.
   ELEMENT FINAL_PART-1.47631 IS DISTORTING EXCESSIVELY.
   ELEMENT FINAL_PART-1.47632 IS DISTORTING EXCESSIVELY.
   ELEMENT FINAL_PART-1.47633 IS DISTORTING EXCESSIVELY.
   ELEMENT FINAL_PART-1.47978 IS DISTORTING EXCESSIVELY.
   ELEMENT FINAL_PART-1.47979 IS DISTORTING EXCESSIVELY.
   ELEMENT FINAL_PART-1.47980 IS DISTORTING EXCESSIVELY.
   ELEMENT FINAL_PART-1.47981 IS DISTORTING EXCESSIVELY.
   ELEMENT FINAL_PART-1.47982 IS DISTORTING EXCESSIVELY.
   ELEMENT FINAL_PART-1.47983 IS DISTORTING EXCESSIVELY.
   ELEMENT FINAL_PART-1.47984 IS DISTORTING EXCESSIVELY.
   ELEMENT FINAL_PART-1.47985 IS DISTORTING EXCESSIVELY.
   ELEMENT FINAL_PART-1.48001 IS DISTORTING EXCESSIVELY.
   ELEMENT FINAL_PART-1.48005 IS DISTORTING EXCESSIVELY.
   ELEMENT FINAL_PART-1.48006 IS DISTORTING EXCESSIVELY.
   ELEMENT FINAL_PART-1.48007 IS DISTORTING EXCESSIVELY.
   ELEMENT FINAL_PART-1.48009 IS DISTORTING EXCESSIVELY.
   ELEMENT FINAL_PART-1.48015 IS DISTORTING EXCESSIVELY.
   ELEMENT FINAL_PART-1.48016 IS DISTORTING EXCESSIVELY.
   ELEMENT FINAL_PART-1.48017 IS DISTORTING EXCESSIVELY.
   ELEMENT FINAL_PART-1.48018 IS DISTORTING EXCESSIVELY.
   ELEMENT FINAL_PART-1.48019 IS DISTORTING EXCESSIVELY.
   ELEMENT FINAL_PART-1.48020 IS DISTORTING EXCESSIVELY.
   ELEMENT FINAL_PART-1.48021 IS DISTORTING EXCESSIVELY.
   ELEMENT FINAL_PART-1.48034 IS DISTORTING EXCESSIVELY.
   ELEMENT FINAL_PART-1.48036 IS DISTORTING EXCESSIVELY.
   ELEMENT FINAL_PART-1.48083 IS DISTORTING EXCESSIVELY.
   ELEMENT FINAL_PART-1.48088 IS DISTORTING EXCESSIVELY.
   ELEMENT FINAL_PART-1.48130 IS DISTORTING EXCESSIVELY.
   ELEMENT FINAL_PART-1.48226 IS DISTORTING EXCESSIVELY.
   ELEMENT FINAL_PART-1.48234 IS DISTORTING EXCESSIVELY.
   ELEMENT FINAL_PART-1.48235 IS DISTORTING EXCESSIVELY.
   ELEMENT FINAL_PART-1.48236 IS DISTORTING EXCESSIVELY.
   ELEMENT FINAL_PART-1.48237 IS DISTORTING EXCESSIVELY.
   ELEMENT FINAL_PART-1.48238 IS DISTORTING EXCESSIVELY.
   ELEMENT FINAL_PART-1.48239 IS DISTORTING EXCESSIVELY.
   ELEMENT FINAL_PART-1.48474 IS DISTORTING EXCESSIVELY.
   ELEMENT FINAL_PART-1.48481 IS DISTORTING EXCESSIVELY.
   ELEMENT FINAL_PART-1.48485 IS DISTORTING EXCESSIVELY.
   ELEMENT FINAL_PART-1.48500 IS DISTORTING EXCESSIVELY.
   ELEMENT FINAL_PART-1.48513 IS DISTORTING EXCESSIVELY.
   ELEMENT FINAL_PART-1.48515 IS DISTORTING EXCESSIVELY.
   ELEMENT FINAL_PART-1.48520 IS DISTORTING EXCESSIVELY.
   ELEMENT FINAL_PART-1.48523 IS DISTORTING EXCESSIVELY.
   ELEMENT FINAL_PART-1.48527 IS DISTORTING EXCESSIVELY.
   ELEMENT FINAL_PART-1.48533 IS DISTORTING EXCESSIVELY.
   ELEMENT FINAL_PART-1.48540 IS DISTORTING EXCESSIVELY.
   ELEMENT FINAL_PART-1.48541 IS DISTORTING EXCESSIVELY.
   ELEMENT FINAL_PART-1.48549 IS DISTORTING EXCESSIVELY.
   ELEMENT FINAL_PART-1.48561 IS DISTORTING EXCESSIVELY.
   ELEMENT FINAL_PART-1.48562 IS DISTORTING EXCESSIVELY.
   ELEMENT FINAL_PART-1.48567 IS DISTORTING EXCESSIVELY.
   ELEMENT FINAL_PART-1.48570 IS DISTORTING EXCESSIVELY.
   ELEMENT FINAL_PART-1.48571 IS DISTORTING EXCESSIVELY.
   ELEMENT FINAL_PART-1.48572 IS DISTORTING EXCESSIVELY.
   ELEMENT FINAL_PART-1.48678 IS DISTORTING EXCESSIVELY.
   ELEMENT FINAL_PART-1.48679 IS DISTORTING EXCESSIVELY.
   ELEMENT FINAL_PART-1.48680 IS DISTORTING EXCESSIVELY.
   ELEMENT FINAL_PART-1.48681 IS DISTORTING EXCESSIVELY.
   ELEMENT FINAL_PART-1.48685 IS DISTORTING EXCESSIVELY.
   ELEMENT FINAL_PART-1.48693 IS DISTORTING EXCESSIVELY.
   ELEMENT FINAL_PART-1.48715 IS DISTORTING EXCESSIVELY.
   ELEMENT FINAL_PART-1.48717 IS DISTORTING EXCESSIVELY.
   ELEMENT FINAL_PART-1.48718 IS DISTORTING EXCESSIVELY.
   ELEMENT FINAL_PART-1.48721 IS DISTORTING EXCESSIVELY.
   ELEMENT FINAL_PART-1.48722 IS DISTORTING EXCESSIVELY.
   ELEMENT FINAL_PART-1.48723 IS DISTORTING EXCESSIVELY.
   ELEMENT FINAL_PART-1.48724 IS DISTORTING EXCESSIVELY.
   ELEMENT FINAL_PART-1.48725 IS DISTORTING EXCESSIVELY.
   ELEMENT FINAL_PART-1.48726 IS DISTORTING EXCESSIVELY.
   ELEMENT FINAL_PART-1.48727 IS DISTORTING EXCESSIVELY.
   ELEMENT FINAL_PART-1.48728 IS DISTORTING EXCESSIVELY.
   ELEMENT FINAL_PART-1.48729 IS DISTORTING EXCESSIVELY.
   ELEMENT FINAL_PART-1.48730 IS DISTORTING EXCESSIVELY.
   ELEMENT FINAL_PART-1.48731 IS DISTORTING EXCESSIVELY.
   ELEMENT FINAL_PART-1.48732 IS DISTORTING EXCESSIVELY.
   ELEMENT FINAL_PART-1.48733 IS DISTORTING EXCESSIVELY.
   ELEMENT FINAL_PART-1.48734 IS DISTORTING EXCESSIVELY.
   ELEMENT FINAL_PART-1.48735 IS DISTORTING EXCESSIVELY.
   ELEMENT FINAL_PART-1.48736 IS DISTORTING EXCESSIVELY.
   ELEMENT FINAL_PART-1.48737 IS DISTORTING EXCESSIVELY.
   ELEMENT FINAL_PART-1.48738 IS DISTORTING EXCESSIVELY.
   ELEMENT FINAL_PART-1.48739 IS DISTORTING EXCESSIVELY.
   ELEMENT FINAL_PART-1.48923 IS DISTORTING EXCESSIVELY.
   ELEMENT FINAL_PART-1.48961 IS DISTORTING EXCESSIVELY.
   ELEMENT FINAL_PART-1.48962 IS DISTORTING EXCESSIVELY.
   ELEMENT FINAL_PART-1.48963 IS DISTORTING EXCESSIVELY.
   ELEMENT FINAL_PART-1.48989 IS DISTORTING EXCESSIVELY.
   ELEMENT FINAL_PART-1.48990 IS DISTORTING EXCESSIVELY.
   ELEMENT FINAL_PART-1.49019 IS DISTORTING EXCESSIVELY.
   ELEMENT FINAL_PART-1.49020 IS DISTORTING EXCESSIVELY.
   ELEMENT FINAL_PART-1.49021 IS DISTORTING EXCESSIVELY.
   ELEMENT FINAL_PART-1.49026 IS DISTORTING EXCESSIVELY.
   ELEMENT FINAL_PART-1.49027 IS DISTORTING EXCESSIVELY.
   ELEMENT FINAL_PART-1.49091 IS DISTORTING EXCESSIVELY.
   ELEMENT FINAL_PART-1.49117 IS DISTORTING EXCESSIVELY.
   ELEMENT FINAL_PART-1.49118 IS DISTORTING EXCESSIVELY.
   ELEMENT FINAL_PART-1.49175 IS DISTORTING EXCESSIVELY.
   ELEMENT FINAL_PART-1.49176 IS DISTORTING EXCESSIVELY.
   ELEMENT FINAL_PART-1.49186 IS DISTORTING EXCESSIVELY.
   ELEMENT FINAL_PART-1.49200 IS DISTORTING EXCESSIVELY.
   ELEMENT FINAL_PART-1.49201 IS DISTORTING EXCESSIVELY.
   ELEMENT FINAL_PART-1.49214 IS DISTORTING EXCESSIVELY.
   ELEMENT FINAL_PART-1.49223 IS DISTORTING EXCESSIVELY.
   ELEMENT FINAL_PART-1.49224 IS DISTORTING EXCESSIVELY.
   ELEMENT FINAL_PART-1.49225 IS DISTORTING EXCESSIVELY.
   ELEMENT FINAL_PART-1.49226 IS DISTORTING EXCESSIVELY.
   ELEMENT FINAL_PART-1.49231 IS DISTORTING EXCESSIVELY.
   ELEMENT FINAL_PART-1.49232 IS DISTORTING EXCESSIVELY.
   ELEMENT FINAL_PART-1.49239 IS DISTORTING EXCESSIVELY.
   ELEMENT FINAL_PART-1.49283 IS DISTORTING EXCESSIVELY.
   ELEMENT FINAL_PART-1.49325 IS DISTORTING EXCESSIVELY.
   ELEMENT FINAL_PART-1.49348 IS DISTORTING EXCESSIVELY.
   ELEMENT FINAL_PART-1.49367 IS DISTORTING EXCESSIVELY.
   ELEMENT FINAL_PART-1.49401 IS DISTORTING EXCESSIVELY.
   ELEMENT FINAL_PART-1.49412 IS DISTORTING EXCESSIVELY.
   ELEMENT FINAL_PART-1.49419 IS DISTORTING EXCESSIVELY.
   ELEMENT FINAL_PART-1.49420 IS DISTORTING EXCESSIVELY.
   ELEMENT FINAL_PART-1.49465 IS DISTORTING EXCESSIVELY.
   ELEMENT FINAL_PART-1.49469 IS DISTORTING EXCESSIVELY.
   ELEMENT FINAL_PART-1.49470 IS DISTORTING EXCESSIVELY.
   ELEMENT FINAL_PART-1.49493 IS DISTORTING EXCESSIVELY.
   ELEMENT FINAL_PART-1.49515 IS DISTORTING EXCESSIVELY.
   ELEMENT FINAL_PART-1.49519 IS DISTORTING EXCESSIVELY.
   ELEMENT FINAL_PART-1.49545 IS DISTORTING EXCESSIVELY.
   ELEMENT FINAL_PART-1.49553 IS DISTORTING EXCESSIVELY.
   ELEMENT FINAL_PART-1.49630 IS DISTORTING EXCESSIVELY.
   ELEMENT FINAL_PART-1.49664 IS DISTORTING EXCESSIVELY.
   ELEMENT FINAL_PART-1.49691 IS DISTORTING EXCESSIVELY.
   ELEMENT FINAL_PART-1.49708 IS DISTORTING EXCESSIVELY.
   ELEMENT FINAL_PART-1.49782 IS DISTORTING EXCESSIVELY.
   ELEMENT FINAL_PART-1.49800 IS DISTORTING EXCESSIVELY.
   ELEMENT FINAL_PART-1.49819 IS DISTORTING EXCESSIVELY.
   ELEMENT FINAL_PART-1.49826 IS DISTORTING EXCESSIVELY.
   ELEMENT FINAL_PART-1.49882 IS DISTORTING EXCESSIVELY.
   ELEMENT FINAL_PART-1.49940 IS DISTORTING EXCESSIVELY.
   ELEMENT FINAL_PART-1.50223 IS DISTORTING EXCESSIVELY.
   ELEMENT FINAL_PART-1.50394 IS DISTORTING EXCESSIVELY.
   ELEMENT FINAL_PART-1.50395 IS DISTORTING EXCESSIVELY.
   ELEMENT FINAL_PART-1.50410 IS DISTORTING EXCESSIVELY.
   ELEMENT FINAL_PART-1.50438 IS DISTORTING EXCESSIVELY.
   ELEMENT FINAL_PART-1.50528 IS DISTORTING EXCESSIVELY.
   ELEMENT FINAL_PART-1.50529 IS DISTORTING EXCESSIVELY.
   ELEMENT FINAL_PART-1.50588 IS DISTORTING EXCESSIVELY.
   ELEMENT FINAL_PART-1.50589 IS DISTORTING EXCESSIVELY.
   ELEMENT FINAL_PART-1.50590 IS DISTORTING EXCESSIVELY.
   ELEMENT FINAL_PART-1.50593 IS DISTORTING EXCESSIVELY.
   ELEMENT FINAL_PART-1.50594 IS DISTORTING EXCESSIVELY.
   ELEMENT FINAL_PART-1.50595 IS DISTORTING EXCESSIVELY.
   ELEMENT FINAL_PART-1.50676 IS DISTORTING EXCESSIVELY.
   ELEMENT FINAL_PART-1.50679 IS DISTORTING EXCESSIVELY.
   ELEMENT FINAL_PART-1.50716 IS DISTORTING EXCESSIVELY.
   ELEMENT FINAL_PART-1.50834 IS DISTORTING EXCESSIVELY.
   ELEMENT FINAL_PART-1.51061 IS DISTORTING EXCESSIVELY.
   ELEMENT FINAL_PART-1.51074 IS DISTORTING EXCESSIVELY.
   ELEMENT FINAL_PART-1.51175 IS DISTORTING EXCESSIVELY.
   ELEMENT FINAL_PART-1.51200 IS DISTORTING EXCESSIVELY.
   ELEMENT FINAL_PART-1.51215 IS DISTORTING EXCESSIVELY.
   ELEMENT FINAL_PART-1.51216 IS DISTORTING EXCESSIVELY.
   ELEMENT FINAL_PART-1.51256 IS DISTORTING EXCESSIVELY.
   ELEMENT FINAL_PART-1.51257 IS DISTORTING EXCESSIVELY.
   ELEMENT FINAL_PART-1.51259 IS DISTORTING EXCESSIVELY.
   ELEMENT FINAL_PART-1.51347 IS DISTORTING EXCESSIVELY.
   ELEMENT FINAL_PART-1.51348 IS DISTORTING EXCESSIVELY.
   ELEMENT FINAL_PART-1.51349 IS DISTORTING EXCESSIVELY.
   ELEMENT FINAL_PART-1.51350 IS DISTORTING EXCESSIVELY.
   ELEMENT FINAL_PART-1.51351 IS DISTORTING EXCESSIVELY.
   ELEMENT FINAL_PART-1.51367 IS DISTORTING EXCESSIVELY.
   ELEMENT FINAL_PART-1.51403 IS DISTORTING EXCESSIVELY.
   ELEMENT FINAL_PART-1.51413 IS DISTORTING EXCESSIVELY.
   ELEMENT FINAL_PART-1.51414 IS DISTORTING EXCESSIVELY.
   ELEMENT FINAL_PART-1.51591 IS DISTORTING EXCESSIVELY.
   ELEMENT FINAL_PART-1.51641 IS DISTORTING EXCESSIVELY.
   ELEMENT FINAL_PART-1.51657 IS DISTORTING EXCESSIVELY.
   ELEMENT FINAL_PART-1.52218 IS DISTORTING EXCESSIVELY.
   ELEMENT FINAL_PART-1.52701 IS DISTORTING EXCESSIVELY.
   ELEMENT FINAL_PART-1.52702 IS DISTORTING EXCESSIVELY.
   ELEMENT FINAL_PART-1.52703 IS DISTORTING EXCESSIVELY.
   ELEMENT FINAL_PART-1.52704 IS DISTORTING EXCESSIVELY.
   ELEMENT FINAL_PART-1.52773 IS DISTORTING EXCESSIVELY.
   ELEMENT FINAL_PART-1.52774 IS DISTORTING EXCESSIVELY.
   ELEMENT FINAL_PART-1.52946 IS DISTORTING EXCESSIVELY.
   ELEMENT FINAL_PART-1.52947 IS DISTORTING EXCESSIVELY.
   ELEMENT FINAL_PART-1.52962 IS DISTORTING EXCESSIVELY.
   ELEMENT FINAL_PART-1.53142 IS DISTORTING EXCESSIVELY.
   ELEMENT FINAL_PART-1.53145 IS DISTORTING EXCESSIVELY.
   ELEMENT FINAL_PART-1.53147 IS DISTORTING EXCESSIVELY.
   ELEMENT FINAL_PART-1.53268 IS DISTORTING EXCESSIVELY.
   ELEMENT FINAL_PART-1.53626 IS DISTORTING EXCESSIVELY.
   ELEMENT FINAL_PART-1.53768 IS DISTORTING EXCESSIVELY.
   ELEMENT FINAL_PART-1.53809 IS DISTORTING EXCESSIVELY.
   ELEMENT FINAL_PART-1.53811 IS DISTORTING EXCESSIVELY.
   ELEMENT FINAL_PART-1.53901 IS DISTORTING EXCESSIVELY.
   ELEMENT FINAL_PART-1.53902 IS DISTORTING EXCESSIVELY.
   ELEMENT FINAL_PART-1.55254 IS DISTORTING EXCESSIVELY.
   ELEMENT FINAL_PART-1.55255 IS DISTORTING EXCESSIVELY.
   ELEMENT FINAL_PART-1.55324 IS DISTORTING EXCESSIVELY.
   ELEMENT FINAL_PART-1.55325 IS DISTORTING EXCESSIVELY.
   ELEMENT FINAL_PART-1.55498 IS DISTORTING EXCESSIVELY.
   ELEMENT FINAL_PART-1.55499 IS DISTORTING EXCESSIVELY.
   ELEMENT FINAL_PART-1.55514 IS DISTORTING EXCESSIVELY.
   ELEMENT FINAL_PART-1.55820 IS DISTORTING EXCESSIVELY.
   ELEMENT FINAL_PART-1.56361 IS DISTORTING EXCESSIVELY.
   ELEMENT FINAL_PART-1.56363 IS DISTORTING EXCESSIVELY.
   ELEMENT FINAL_PART-1.56364 IS DISTORTING EXCESSIVELY.
   ELEMENT FINAL_PART-1.56420 IS DISTORTING EXCESSIVELY.
   ELEMENT FINAL_PART-1.58050 IS DISTORTING EXCESSIVELY.
   ELEMENT FINAL_PART-1.58051 IS DISTORTING EXCESSIVELY.
   ELEMENT FINAL_PART-1.58066 IS DISTORTING EXCESSIVELY.
   ELEMENT FINAL_PART-1.58073 IS DISTORTING EXCESSIVELY.
   ELEMENT FINAL_PART-1.58368 IS DISTORTING EXCESSIVELY.
   ELEMENT FINAL_PART-1.58372 IS DISTORTING EXCESSIVELY.
   ELEMENT FINAL_PART-1.58480 IS DISTORTING EXCESSIVELY.
   ELEMENT FINAL_PART-1.58912 IS DISTORTING EXCESSIVELY.
   ELEMENT FINAL_PART-1.58913 IS DISTORTING EXCESSIVELY.
   ELEMENT FINAL_PART-1.58914 IS DISTORTING EXCESSIVELY.
   ELEMENT FINAL_PART-1.58915 IS DISTORTING EXCESSIVELY.
   ELEMENT FINAL_PART-1.58916 IS DISTORTING EXCESSIVELY.
   ELEMENT FINAL_PART-1.58972 IS DISTORTING EXCESSIVELY.
   ELEMENT FINAL_PART-1.58974 IS DISTORTING EXCESSIVELY.
   ELEMENT FINAL_PART-1.58989 IS DISTORTING EXCESSIVELY.
   ELEMENT FINAL_PART-1.58990 IS DISTORTING EXCESSIVELY.
   ELEMENT FINAL_PART-1.59267 IS DISTORTING EXCESSIVELY.
   ELEMENT FINAL_PART-1.60519 IS DISTORTING EXCESSIVELY.
   ELEMENT FINAL_PART-1.60520 IS DISTORTING EXCESSIVELY.
   ELEMENT FINAL_PART-1.60522 IS DISTORTING EXCESSIVELY.
   ELEMENT FINAL_PART-1.60525 IS DISTORTING EXCESSIVELY.
   ELEMENT FINAL_PART-1.60550 IS DISTORTING EXCESSIVELY.
   ELEMENT FINAL_PART-1.60551 IS DISTORTING EXCESSIVELY.
   ELEMENT FINAL_PART-1.60556 IS DISTORTING EXCESSIVELY.
   ELEMENT FINAL_PART-1.60557 IS DISTORTING EXCESSIVELY.
   ELEMENT FINAL_PART-1.60564 IS DISTORTING EXCESSIVELY.
   ELEMENT FINAL_PART-1.60566 IS DISTORTING EXCESSIVELY.
   ELEMENT FINAL_PART-1.60569 IS DISTORTING EXCESSIVELY.
   ELEMENT FINAL_PART-1.60578 IS DISTORTING EXCESSIVELY.
   ELEMENT FINAL_PART-1.60585 IS DISTORTING EXCESSIVELY.
   ELEMENT FINAL_PART-1.60587 IS DISTORTING EXCESSIVELY.
   ELEMENT FINAL_PART-1.60602 IS DISTORTING EXCESSIVELY.
   ELEMENT FINAL_PART-1.60603 IS DISTORTING EXCESSIVELY.
   ELEMENT FINAL_PART-1.60604 IS DISTORTING EXCESSIVELY.
   ELEMENT FINAL_PART-1.60605 IS DISTORTING EXCESSIVELY.
   ELEMENT FINAL_PART-1.60616 IS DISTORTING EXCESSIVELY.
   ELEMENT FINAL_PART-1.60617 IS DISTORTING EXCESSIVELY.
   ELEMENT FINAL_PART-1.60618 IS DISTORTING EXCESSIVELY.
   ELEMENT FINAL_PART-1.60624 IS DISTORTING EXCESSIVELY.
   ELEMENT FINAL_PART-1.60625 IS DISTORTING EXCESSIVELY.
   ELEMENT FINAL_PART-1.60626 IS DISTORTING EXCESSIVELY.
   ELEMENT FINAL_PART-1.60662 IS DISTORTING EXCESSIVELY.
   ELEMENT FINAL_PART-1.60919 IS DISTORTING EXCESSIVELY.
   ELEMENT FINAL_PART-1.60920 IS DISTORTING EXCESSIVELY.
   ELEMENT FINAL_PART-1.60924 IS DISTORTING EXCESSIVELY.
   ELEMENT FINAL_PART-1.60925 IS DISTORTING EXCESSIVELY.
   ELEMENT FINAL_PART-1.60926 IS DISTORTING EXCESSIVELY.
   ELEMENT FINAL_PART-1.60931 IS DISTORTING EXCESSIVELY.
   ELEMENT FINAL_PART-1.60932 IS DISTORTING EXCESSIVELY.
   ELEMENT FINAL_PART-1.60933 IS DISTORTING EXCESSIVELY.
   ELEMENT FINAL_PART-1.60940 IS DISTORTING EXCESSIVELY.
   ELEMENT FINAL_PART-1.61032 IS DISTORTING EXCESSIVELY.
   ELEMENT FINAL_PART-1.61122 IS DISTORTING EXCESSIVELY.
   ELEMENT FINAL_PART-1.61127 IS DISTORTING EXCESSIVELY.
   ELEMENT FINAL_PART-1.61130 IS DISTORTING EXCESSIVELY.
   ELEMENT FINAL_PART-1.61132 IS DISTORTING EXCESSIVELY.
   ELEMENT FINAL_PART-1.61138 IS DISTORTING EXCESSIVELY.
   ELEMENT FINAL_PART-1.61141 IS DISTORTING EXCESSIVELY.
   ELEMENT FINAL_PART-1.61149 IS DISTORTING EXCESSIVELY.
   ELEMENT FINAL_PART-1.61150 IS DISTORTING EXCESSIVELY.
   ELEMENT FINAL_PART-1.61153 IS DISTORTING EXCESSIVELY.
   ELEMENT FINAL_PART-1.61160 IS DISTORTING EXCESSIVELY.
   ELEMENT FINAL_PART-1.61167 IS DISTORTING EXCESSIVELY.
   ELEMENT FINAL_PART-1.61171 IS DISTORTING EXCESSIVELY.
   ELEMENT FINAL_PART-1.61172 IS DISTORTING EXCESSIVELY.
   ELEMENT FINAL_PART-1.61176 IS DISTORTING EXCESSIVELY.
   ELEMENT FINAL_PART-1.61180 IS DISTORTING EXCESSIVELY.
   ELEMENT FINAL_PART-1.61183 IS DISTORTING EXCESSIVELY.
   ELEMENT FINAL_PART-1.61187 IS DISTORTING EXCESSIVELY.
   ELEMENT FINAL_PART-1.61191 IS DISTORTING EXCESSIVELY.
   ELEMENT FINAL_PART-1.61219 IS DISTORTING EXCESSIVELY.
   ELEMENT FINAL_PART-1.61220 IS DISTORTING EXCESSIVELY.
   ELEMENT FINAL_PART-1.61221 IS DISTORTING EXCESSIVELY.
   ELEMENT FINAL_PART-1.61229 IS DISTORTING EXCESSIVELY.
   ELEMENT FINAL_PART-1.61457 IS DISTORTING EXCESSIVELY.
   ELEMENT FINAL_PART-1.61464 IS DISTORTING EXCESSIVELY.
   ELEMENT FINAL_PART-1.61465 IS DISTORTING EXCESSIVELY.
   ELEMENT FINAL_PART-1.61466 IS DISTORTING EXCESSIVELY.
   ELEMENT FINAL_PART-1.61467 IS DISTORTING EXCESSIVELY.
   ELEMENT FINAL_PART-1.61468 IS DISTORTING EXCESSIVELY.
   ELEMENT FINAL_PART-1.61524 IS DISTORTING EXCESSIVELY.
   ELEMENT FINAL_PART-1.61525 IS DISTORTING EXCESSIVELY.
   ELEMENT FINAL_PART-1.61526 IS DISTORTING EXCESSIVELY.
   ELEMENT FINAL_PART-1.61527 IS DISTORTING EXCESSIVELY.
   ELEMENT FINAL_PART-1.61531 IS DISTORTING EXCESSIVELY.
   ELEMENT FINAL_PART-1.61532 IS DISTORTING EXCESSIVELY.
   ELEMENT FINAL_PART-1.61533 IS DISTORTING EXCESSIVELY.
   ELEMENT FINAL_PART-1.61534 IS DISTORTING EXCESSIVELY.
   ELEMENT FINAL_PART-1.61535 IS DISTORTING EXCESSIVELY.
   ELEMENT FINAL_PART-1.61536 IS DISTORTING EXCESSIVELY.
   ELEMENT FINAL_PART-1.61537 IS DISTORTING EXCESSIVELY.
   ELEMENT FINAL_PART-1.61538 IS DISTORTING EXCESSIVELY.
   ELEMENT FINAL_PART-1.61539 IS DISTORTING EXCESSIVELY.
   ELEMENT FINAL_PART-1.61540 IS DISTORTING EXCESSIVELY.
   ELEMENT FINAL_PART-1.61541 IS DISTORTING EXCESSIVELY.
   ELEMENT FINAL_PART-1.61542 IS DISTORTING EXCESSIVELY.
   ELEMENT FINAL_PART-1.61543 IS DISTORTING EXCESSIVELY.
   ELEMENT FINAL_PART-1.61544 IS DISTORTING EXCESSIVELY.
   ELEMENT FINAL_PART-1.61545 IS DISTORTING EXCESSIVELY.
   ELEMENT FINAL_PART-1.61546 IS DISTORTING EXCESSIVELY.
   ELEMENT FINAL_PART-1.61547 IS DISTORTING EXCESSIVELY.
   ELEMENT FINAL_PART-1.61688 IS DISTORTING EXCESSIVELY.
   ELEMENT FINAL_PART-1.61740 IS DISTORTING EXCESSIVELY.
   ELEMENT FINAL_PART-1.61755 IS DISTORTING EXCESSIVELY.
   ELEMENT FINAL_PART-1.61756 IS DISTORTING EXCESSIVELY.
   ELEMENT FINAL_PART-1.61782 IS DISTORTING EXCESSIVELY.
   ELEMENT FINAL_PART-1.61783 IS DISTORTING EXCESSIVELY.
   ELEMENT FINAL_PART-1.61813 IS DISTORTING EXCESSIVELY.
   ELEMENT FINAL_PART-1.61814 IS DISTORTING EXCESSIVELY.
   ELEMENT FINAL_PART-1.61815 IS DISTORTING EXCESSIVELY.
   ELEMENT FINAL_PART-1.61816 IS DISTORTING EXCESSIVELY.
   ELEMENT FINAL_PART-1.61817 IS DISTORTING EXCESSIVELY.
   ELEMENT FINAL_PART-1.61819 IS DISTORTING EXCESSIVELY.
   ELEMENT FINAL_PART-1.61909 IS DISTORTING EXCESSIVELY.
   ELEMENT FINAL_PART-1.61910 IS DISTORTING EXCESSIVELY.
   ELEMENT FINAL_PART-1.61954 IS DISTORTING EXCESSIVELY.
   ELEMENT FINAL_PART-1.61956 IS DISTORTING EXCESSIVELY.
   ELEMENT FINAL_PART-1.61957 IS DISTORTING EXCESSIVELY.
   ELEMENT FINAL_PART-1.61969 IS DISTORTING EXCESSIVELY.
   ELEMENT FINAL_PART-1.61985 IS DISTORTING EXCESSIVELY.
   ELEMENT FINAL_PART-1.61986 IS DISTORTING EXCESSIVELY.
   ELEMENT FINAL_PART-1.61987 IS DISTORTING EXCESSIVELY.
   ELEMENT FINAL_PART-1.61989 IS DISTORTING EXCESSIVELY.
   ELEMENT FINAL_PART-1.62011 IS DISTORTING EXCESSIVELY.
   ELEMENT FINAL_PART-1.62013 IS DISTORTING EXCESSIVELY.
   ELEMENT FINAL_PART-1.62020 IS DISTORTING EXCESSIVELY.
   ELEMENT FINAL_PART-1.62021 IS DISTORTING EXCESSIVELY.
   ELEMENT FINAL_PART-1.62031 IS DISTORTING EXCESSIVELY.
   ELEMENT FINAL_PART-1.62060 IS DISTORTING EXCESSIVELY.
   ELEMENT FINAL_PART-1.62063 IS DISTORTING EXCESSIVELY.
   ELEMENT FINAL_PART-1.62087 IS DISTORTING EXCESSIVELY.
   ELEMENT FINAL_PART-1.62088 IS DISTORTING EXCESSIVELY.
   ELEMENT FINAL_PART-1.62115 IS DISTORTING EXCESSIVELY.
   ELEMENT FINAL_PART-1.62120 IS DISTORTING EXCESSIVELY.
   ELEMENT FINAL_PART-1.62121 IS DISTORTING EXCESSIVELY.
   ELEMENT FINAL_PART-1.62128 IS DISTORTING EXCESSIVELY.
   ELEMENT FINAL_PART-1.62150 IS DISTORTING EXCESSIVELY.
   ELEMENT FINAL_PART-1.62151 IS DISTORTING EXCESSIVELY.
   ELEMENT FINAL_PART-1.62152 IS DISTORTING EXCESSIVELY.
   ELEMENT FINAL_PART-1.62167 IS DISTORTING EXCESSIVELY.
   ELEMENT FINAL_PART-1.62171 IS DISTORTING EXCESSIVELY.
   ELEMENT FINAL_PART-1.62189 IS DISTORTING EXCESSIVELY.
   ELEMENT FINAL_PART-1.62194 IS DISTORTING EXCESSIVELY.
   ELEMENT FINAL_PART-1.62236 IS DISTORTING EXCESSIVELY.
   ELEMENT FINAL_PART-1.62286 IS DISTORTING EXCESSIVELY.
   ELEMENT FINAL_PART-1.62291 IS DISTORTING EXCESSIVELY.
   ELEMENT FINAL_PART-1.62292 IS DISTORTING EXCESSIVELY.
   ELEMENT FINAL_PART-1.62320 IS DISTORTING EXCESSIVELY.
   ELEMENT FINAL_PART-1.62335 IS DISTORTING EXCESSIVELY.
   ELEMENT FINAL_PART-1.62430 IS DISTORTING EXCESSIVELY.
   ELEMENT FINAL_PART-1.62431 IS DISTORTING EXCESSIVELY.
   ELEMENT FINAL_PART-1.62472 IS DISTORTING EXCESSIVELY.
   ELEMENT FINAL_PART-1.62499 IS DISTORTING EXCESSIVELY.
   ELEMENT FINAL_PART-1.62700 IS DISTORTING EXCESSIVELY.
   ELEMENT FINAL_PART-1.62787 IS DISTORTING EXCESSIVELY.
   ELEMENT FINAL_PART-1.62791 IS DISTORTING EXCESSIVELY.
   ELEMENT FINAL_PART-1.62835 IS DISTORTING EXCESSIVELY.
   ELEMENT FINAL_PART-1.62863 IS DISTORTING EXCESSIVELY.
   ELEMENT FINAL_PART-1.62984 IS DISTORTING EXCESSIVELY.
   ELEMENT FINAL_PART-1.62985 IS DISTORTING EXCESSIVELY.
   ELEMENT FINAL_PART-1.62988 IS DISTORTING EXCESSIVELY.
   ELEMENT FINAL_PART-1.62989 IS DISTORTING EXCESSIVELY.
   ELEMENT FINAL_PART-1.62990 IS DISTORTING EXCESSIVELY.
   ELEMENT FINAL_PART-1.62991 IS DISTORTING EXCESSIVELY.
   ELEMENT FINAL_PART-1.62992 IS DISTORTING EXCESSIVELY.
   ELEMENT FINAL_PART-1.62998 IS DISTORTING EXCESSIVELY.
   ELEMENT FINAL_PART-1.62999 IS DISTORTING EXCESSIVELY.
   ELEMENT FINAL_PART-1.63000 IS DISTORTING EXCESSIVELY.
   ELEMENT FINAL_PART-1.63001 IS DISTORTING EXCESSIVELY.
   ELEMENT FINAL_PART-1.63002 IS DISTORTING EXCESSIVELY.
   ELEMENT FINAL_PART-1.63003 IS DISTORTING EXCESSIVELY.
   ELEMENT FINAL_PART-1.63004 IS DISTORTING EXCESSIVELY.
   ELEMENT FINAL_PART-1.63016 IS DISTORTING EXCESSIVELY.
   ELEMENT FINAL_PART-1.63017 IS DISTORTING EXCESSIVELY.
   ELEMENT FINAL_PART-1.63018 IS DISTORTING EXCESSIVELY.
   ELEMENT FINAL_PART-1.63019 IS DISTORTING EXCESSIVELY.
   ELEMENT FINAL_PART-1.63020 IS DISTORTING EXCESSIVELY.
   ELEMENT FINAL_PART-1.63021 IS DISTORTING EXCESSIVELY.
   ELEMENT FINAL_PART-1.63022 IS DISTORTING EXCESSIVELY.
   ELEMENT FINAL_PART-1.63023 IS DISTORTING EXCESSIVELY.
   ELEMENT FINAL_PART-1.63024 IS DISTORTING EXCESSIVELY.
   ELEMENT FINAL_PART-1.63025 IS DISTORTING EXCESSIVELY.
   ELEMENT FINAL_PART-1.63026 IS DISTORTING EXCESSIVELY.
   ELEMENT FINAL_PART-1.63027 IS DISTORTING EXCESSIVELY.
   ELEMENT FINAL_PART-1.63028 IS DISTORTING EXCESSIVELY.
   ELEMENT FINAL_PART-1.63029 IS DISTORTING EXCESSIVELY.
   ELEMENT FINAL_PART-1.63030 IS DISTORTING EXCESSIVELY.
   ELEMENT FINAL_PART-1.63031 IS DISTORTING EXCESSIVELY.
   ELEMENT FINAL_PART-1.63032 IS DISTORTING EXCESSIVELY.
   ELEMENT FINAL_PART-1.63033 IS DISTORTING EXCESSIVELY.
   ELEMENT FINAL_PART-1.63034 IS DISTORTING EXCESSIVELY.
   ELEMENT FINAL_PART-1.63035 IS DISTORTING EXCESSIVELY.
   ELEMENT FINAL_PART-1.63036 IS DISTORTING EXCESSIVELY.
   ELEMENT FINAL_PART-1.63038 IS DISTORTING EXCESSIVELY.
   ELEMENT FINAL_PART-1.63039 IS DISTORTING EXCESSIVELY.
   ELEMENT FINAL_PART-1.63041 IS DISTORTING EXCESSIVELY.
   ELEMENT FINAL_PART-1.63042 IS DISTORTING EXCESSIVELY.
   ELEMENT FINAL_PART-1.63043 IS DISTORTING EXCESSIVELY.
   ELEMENT FINAL_PART-1.63044 IS DISTORTING EXCESSIVELY.
   ELEMENT FINAL_PART-1.63045 IS DISTORTING EXCESSIVELY.
   ELEMENT FINAL_PART-1.63046 IS DISTORTING EXCESSIVELY.
   ELEMENT FINAL_PART-1.63047 IS DISTORTING EXCESSIVELY.
   ELEMENT FINAL_PART-1.63048 IS DISTORTING EXCESSIVELY.
   ELEMENT FINAL_PART-1.63049 IS DISTORTING EXCESSIVELY.
   ELEMENT FINAL_PART-1.63050 IS DISTORTING EXCESSIVELY.
   ELEMENT FINAL_PART-1.63051 IS DISTORTING EXCESSIVELY.
   ELEMENT FINAL_PART-1.63052 IS DISTORTING EXCESSIVELY.
   ELEMENT FINAL_PART-1.63053 IS DISTORTING EXCESSIVELY.
   ELEMENT FINAL_PART-1.63054 IS DISTORTING EXCESSIVELY.
   ELEMENT FINAL_PART-1.63055 IS DISTORTING EXCESSIVELY.
   ELEMENT FINAL_PART-1.63056 IS DISTORTING EXCESSIVELY.
   ELEMENT FINAL_PART-1.63057 IS DISTORTING EXCESSIVELY.
   ELEMENT FINAL_PART-1.63058 IS DISTORTING EXCESSIVELY.
   ELEMENT FINAL_PART-1.63059 IS DISTORTING EXCESSIVELY.
   ELEMENT FINAL_PART-1.63060 IS DISTORTING EXCESSIVELY.
   ELEMENT FINAL_PART-1.63061 IS DISTORTING EXCESSIVELY.
   ELEMENT FINAL_PART-1.63062 IS DISTORTING EXCESSIVELY.
   ELEMENT FINAL_PART-1.63063 IS DISTORTING EXCESSIVELY.
   ELEMENT FINAL_PART-1.63064 IS DISTORTING EXCESSIVELY.
   ELEMENT FINAL_PART-1.63065 IS DISTORTING EXCESSIVELY.
   ELEMENT FINAL_PART-1.63066 IS DISTORTING EXCESSIVELY.
   ELEMENT FINAL_PART-1.63067 IS DISTORTING EXCESSIVELY.
   ELEMENT FINAL_PART-1.63068 IS DISTORTING EXCESSIVELY.
   ELEMENT FINAL_PART-1.63069 IS DISTORTING EXCESSIVELY.
   ELEMENT FINAL_PART-1.63070 IS DISTORTING EXCESSIVELY.
   ELEMENT FINAL_PART-1.63071 IS DISTORTING EXCESSIVELY.
   ELEMENT FINAL_PART-1.63072 IS DISTORTING EXCESSIVELY.
   ELEMENT FINAL_PART-1.63073 IS DISTORTING EXCESSIVELY.
   ELEMENT FINAL_PART-1.63074 IS DISTORTING EXCESSIVELY.
   ELEMENT FINAL_PART-1.63075 IS DISTORTING EXCESSIVELY.
   ELEMENT FINAL_PART-1.63076 IS DISTORTING EXCESSIVELY.
   ELEMENT FINAL_PART-1.63077 IS DISTORTING EXCESSIVELY.
   ELEMENT FINAL_PART-1.63078 IS DISTORTING EXCESSIVELY.
   ELEMENT FINAL_PART-1.63079 IS DISTORTING EXCESSIVELY.
   ELEMENT FINAL_PART-1.63080 IS DISTORTING EXCESSIVELY.
   ELEMENT FINAL_PART-1.63081 IS DISTORTING EXCESSIVELY.
   ELEMENT FINAL_PART-1.63082 IS DISTORTING EXCESSIVELY.
   ELEMENT FINAL_PART-1.63083 IS DISTORTING EXCESSIVELY.
   ELEMENT FINAL_PART-1.63084 IS DISTORTING EXCESSIVELY.
   ELEMENT FINAL_PART-1.63085 IS DISTORTING EXCESSIVELY.
   ELEMENT FINAL_PART-1.63086 IS DISTORTING EXCESSIVELY.
   ELEMENT FINAL_PART-1.63087 IS DISTORTING EXCESSIVELY.
   ELEMENT FINAL_PART-1.63088 IS DISTORTING EXCESSIVELY.
   ELEMENT FINAL_PART-1.63089 IS DISTORTING EXCESSIVELY.
   ELEMENT FINAL_PART-1.63090 IS DISTORTING EXCESSIVELY.
   ELEMENT FINAL_PART-1.63091 IS DISTORTING EXCESSIVELY.
   ELEMENT FINAL_PART-1.63092 IS DISTORTING EXCESSIVELY.
   ELEMENT FINAL_PART-1.63093 IS DISTORTING EXCESSIVELY.
   ELEMENT FINAL_PART-1.63094 IS DISTORTING EXCESSIVELY.
   ELEMENT FINAL_PART-1.63096 IS DISTORTING EXCESSIVELY.
   ELEMENT FINAL_PART-1.63097 IS DISTORTING EXCESSIVELY.
   ELEMENT FINAL_PART-1.63098 IS DISTORTING EXCESSIVELY.
   ELEMENT FINAL_PART-1.63099 IS DISTORTING EXCESSIVELY.
   ELEMENT FINAL_PART-1.63100 IS DISTORTING EXCESSIVELY.
   ELEMENT FINAL_PART-1.63101 IS DISTORTING EXCESSIVELY.
[...]
   ELEMENT FINAL_PART-1.99936 IS DISTORTING EXCESSIVELY.
   ELEMENT FINAL_PART-1.99937 IS DISTORTING EXCESSIVELY.
   ELEMENT FINAL_PART-1.99945 IS DISTORTING EXCESSIVELY.
   ELEMENT FINAL_PART-1.99961 IS DISTORTING EXCESSIVELY.
   ELEMENT FINAL_PART-1.99982 IS DISTORTING EXCESSIVELY.
   ELEMENT FINAL_PART-1.99983 IS DISTORTING EXCESSIVELY.
   ELEMENT FINAL_PART-1.100059 IS DISTORTING EXCESSIVELY.
   ELEMENT FINAL_PART-1.100145 IS DISTORTING EXCESSIVELY.
   ELEMENT FINAL_PART-1.100187 IS DISTORTING EXCESSIVELY.
   ELEMENT FINAL_PART-1.100226 IS DISTORTING EXCESSIVELY.
   ELEMENT FINAL_PART-1.100227 IS DISTORTING EXCESSIVELY.
   ELEMENT FINAL_PART-1.100351 IS DISTORTING EXCESSIVELY.
   ELEMENT FINAL_PART-1.100376 IS DISTORTING EXCESSIVELY.
   ELEMENT FINAL_PART-1.100406 IS DISTORTING EXCESSIVELY.
   ELEMENT FINAL_PART-1.100419 IS DISTORTING EXCESSIVELY.
   ELEMENT FINAL_PART-1.100443 IS DISTORTING EXCESSIVELY.
   ELEMENT FINAL_PART-1.100521 IS DISTORTING EXCESSIVELY.
   ELEMENT FINAL_PART-1.100530 IS DISTORTING EXCESSIVELY.
   ELEMENT FINAL_PART-1.100685 IS DISTORTING EXCESSIVELY.
   ELEMENT FINAL_PART-1.100686 IS DISTORTING EXCESSIVELY.
   ELEMENT FINAL_PART-1.100832 IS DISTORTING EXCESSIVELY.
   ELEMENT FINAL_PART-1.100860 IS DISTORTING EXCESSIVELY.
   ELEMENT FINAL_PART-1.100861 IS DISTORTING EXCESSIVELY.
   ELEMENT FINAL_PART-1.100902 IS DISTORTING EXCESSIVELY.
   ELEMENT FINAL_PART-1.100920 IS DISTORTING EXCESSIVELY.
   ELEMENT FINAL_PART-1.100966 IS DISTORTING EXCESSIVELY.
   ELEMENT FINAL_PART-1.100971 IS DISTORTING EXCESSIVELY.
   ELEMENT FINAL_PART-1.100972 IS DISTORTING EXCESSIVELY.
   ELEMENT FINAL_PART-1.101041 IS DISTORTING EXCESSIVELY.
   ELEMENT FINAL_PART-1.101074 IS DISTORTING EXCESSIVELY.
   ELEMENT FINAL_PART-1.101185 IS DISTORTING EXCESSIVELY.
   ELEMENT FINAL_PART-1.101213 IS DISTORTING EXCESSIVELY.
   ELEMENT FINAL_PART-1.101230 IS DISTORTING EXCESSIVELY.
   ELEMENT FINAL_PART-1.101292 IS DISTORTING EXCESSIVELY.
   ELEMENT FINAL_PART-1.101293 IS DISTORTING EXCESSIVELY.
   ELEMENT FINAL_PART-1.101323 IS DISTORTING EXCESSIVELY.
   ELEMENT FINAL_PART-1.101328 IS DISTORTING EXCESSIVELY.
   ELEMENT FINAL_PART-1.101421 IS DISTORTING EXCESSIVELY.
   ELEMENT FINAL_PART-1.101442 IS DISTORTING EXCESSIVELY.
   ELEMENT FINAL_PART-1.101485 IS DISTORTING EXCESSIVELY.
   ELEMENT FINAL_PART-1.101514 IS DISTORTING EXCESSIVELY.
   ELEMENT FINAL_PART-1.101545 IS DISTORTING EXCESSIVELY.
   ELEMENT FINAL_PART-1.101559 IS DISTORTING EXCESSIVELY.
   ELEMENT FINAL_PART-1.101599 IS DISTORTING EXCESSIVELY.
   ELEMENT FINAL_PART-1.102021 IS DISTORTING EXCESSIVELY.
   ELEMENT FINAL_PART-1.102045 IS DISTORTING EXCESSIVELY.
   ELEMENT FINAL_PART-1.102065 IS DISTORTING EXCESSIVELY.
   ELEMENT FINAL_PART-1.102193 IS DISTORTING EXCESSIVELY.
   ELEMENT FINAL_PART-1.102252 IS DISTORTING EXCESSIVELY.
   ELEMENT FINAL_PART-1.102260 IS DISTORTING EXCESSIVELY.
   ELEMENT FINAL_PART-1.102269 IS DISTORTING EXCESSIVELY.
   ELEMENT FINAL_PART-1.102281 IS DISTORTING EXCESSIVELY.
   ELEMENT FINAL_PART-1.102466 IS DISTORTING EXCESSIVELY.
   ELEMENT FINAL_PART-1.102595 IS DISTORTING EXCESSIVELY.
   ELEMENT FINAL_PART-1.103636 IS DISTORTING EXCESSIVELY.
   ELEMENT FINAL_PART-1.103787 IS DISTORTING EXCESSIVELY.
   ELEMENT FINAL_PART-1.103788 IS DISTORTING EXCESSIVELY.
   ELEMENT FINAL_PART-1.105280 IS DISTORTING EXCESSIVELY.
   ELEMENT FINAL_PART-1.105295 IS DISTORTING EXCESSIVELY.
   ELEMENT FINAL_PART-1.105328 IS DISTORTING EXCESSIVELY.
   ELEMENT FINAL_PART-1.123295 IS DISTORTING EXCESSIVELY.
   ELEMENT FINAL_PART-1.124362 IS DISTORTING EXCESSIVELY.

 ***WARNING: EXCESSIVE DISTORTION AT A TOTAL OF 864 INTEGRATION POINTS IN SOLID 
             (CONTINUUM) ELEMENTS
 

 ***NOTE: ELEMENTS ARE DISTORTING EXCESSIVELY. CONVERGENCE IS JUDGED UNLIKELY.


  INCREMENT     1 STARTS. ATTEMPT NUMBER  5, TIME INCREMENT  3.906E-03
 
	SYMMETRIC PURE THREAD-BASED DIRECT SPARSE SOLVER RUNNING ON
 	1 HOST x 1 MPI RANK PER HOST x 1 THREAD PER RANK
        NUMBER OF EQUATIONS:  494706
        NUMBER OF RHS:        1
        NUMBER OF FLOPS:      1.131e+11
        SOLVER ELAPSED TIME:  6.5s
   ELEMENT FINAL_PART-1.26 IS DISTORTING EXCESSIVELY.
   ELEMENT FINAL_PART-1.77 IS DISTORTING EXCESSIVELY.
   ELEMENT FINAL_PART-1.103 IS DISTORTING EXCESSIVELY.
   ELEMENT FINAL_PART-1.104 IS DISTORTING EXCESSIVELY.
   ELEMENT FINAL_PART-1.223 IS DISTORTING EXCESSIVELY.
   ELEMENT FINAL_PART-1.224 IS DISTORTING EXCESSIVELY.
   ELEMENT FINAL_PART-1.258 IS DISTORTING EXCESSIVELY.
   ELEMENT FINAL_PART-1.259 IS DISTORTING EXCESSIVELY.
   ELEMENT FINAL_PART-1.431 IS DISTORTING EXCESSIVELY.
   ELEMENT FINAL_PART-1.432 IS DISTORTING EXCESSIVELY.
   ELEMENT FINAL_PART-1.476 IS DISTORTING EXCESSIVELY.
   ELEMENT FINAL_PART-1.477 IS DISTORTING EXCESSIVELY.
   ELEMENT FINAL_PART-1.774 IS DISTORTING EXCESSIVELY.
   ELEMENT FINAL_PART-1.889 IS DISTORTING EXCESSIVELY.
   ELEMENT FINAL_PART-1.947 IS DISTORTING EXCESSIVELY.
   ELEMENT FINAL_PART-1.948 IS DISTORTING EXCESSIVELY.
   ELEMENT FINAL_PART-1.1164 IS DISTORTING EXCESSIVELY.
   ELEMENT FINAL_PART-1.1165 IS DISTORTING EXCESSIVELY.
   ELEMENT FINAL_PART-1.1166 IS DISTORTING EXCESSIVELY.
   ELEMENT FINAL_PART-1.1167 IS DISTORTING EXCESSIVELY.
   ELEMENT FINAL_PART-1.1168 IS DISTORTING EXCESSIVELY.
   ELEMENT FINAL_PART-1.1169 IS DISTORTING EXCESSIVELY.
   ELEMENT FINAL_PART-1.1170 IS DISTORTING EXCESSIVELY.
   ELEMENT FINAL_PART-1.1171 IS DISTORTING EXCESSIVELY.
   ELEMENT FINAL_PART-1.1172 IS DISTORTING EXCESSIVELY.
   ELEMENT FINAL_PART-1.1173 IS DISTORTING EXCESSIVELY.
   ELEMENT FINAL_PART-1.1174 IS DISTORTING EXCESSIVELY.
   ELEMENT FINAL_PART-1.1175 IS DISTORTING EXCESSIVELY.
   ELEMENT FINAL_PART-1.1176 IS DISTORTING EXCESSIVELY.
   ELEMENT FINAL_PART-1.1177 IS DISTORTING EXCESSIVELY.
   ELEMENT FINAL_PART-1.1178 IS DISTORTING EXCESSIVELY.
   ELEMENT FINAL_PART-1.1179 IS DISTORTING EXCESSIVELY.
   ELEMENT FINAL_PART-1.1180 IS DISTORTING EXCESSIVELY.
   ELEMENT FINAL_PART-1.1181 IS DISTORTING EXCESSIVELY.
   ELEMENT FINAL_PART-1.1182 IS DISTORTING EXCESSIVELY.
   ELEMENT FINAL_PART-1.1314 IS DISTORTING EXCESSIVELY.
   ELEMENT FINAL_PART-1.1315 IS DISTORTING EXCESSIVELY.
   ELEMENT FINAL_PART-1.1316 IS DISTORTING EXCESSIVELY.
   ELEMENT FINAL_PART-1.1317 IS DISTORTING EXCESSIVELY.
   ELEMENT FINAL_PART-1.1318 IS DISTORTING EXCESSIVELY.
   ELEMENT FINAL_PART-1.1319 IS DISTORTING EXCESSIVELY.
   ELEMENT FINAL_PART-1.1320 IS DISTORTING EXCESSIVELY.
   ELEMENT FINAL_PART-1.1321 IS DISTORTING EXCESSIVELY.
   ELEMENT FINAL_PART-1.1322 IS DISTORTING EXCESSIVELY.
   ELEMENT FINAL_PART-1.1323 IS DISTORTING EXCESSIVELY.
   ELEMENT FINAL_PART-1.1324 IS DISTORTING EXCESSIVELY.
   ELEMENT FINAL_PART-1.1325 IS DISTORTING EXCESSIVELY.
   ELEMENT FINAL_PART-1.1326 IS DISTORTING EXCESSIVELY.
   ELEMENT FINAL_PART-1.1327 IS DISTORTING EXCESSIVELY.
   ELEMENT FINAL_PART-1.1328 IS DISTORTING EXCESSIVELY.
   ELEMENT FINAL_PART-1.1329 IS DISTORTING EXCESSIVELY.
   ELEMENT FINAL_PART-1.1330 IS DISTORTING EXCESSIVELY.
   ELEMENT FINAL_PART-1.1331 IS DISTORTING EXCESSIVELY.
   ELEMENT FINAL_PART-1.1332 IS DISTORTING EXCESSIVELY.
   ELEMENT FINAL_PART-1.1333 IS DISTORTING EXCESSIVELY.
   ELEMENT FINAL_PART-1.1334 IS DISTORTING EXCESSIVELY.
   ELEMENT FINAL_PART-1.1335 IS DISTORTING EXCESSIVELY.
   ELEMENT FINAL_PART-1.1336 IS DISTORTING EXCESSIVELY.
   ELEMENT FINAL_PART-1.1337 IS DISTORTING EXCESSIVELY.
   ELEMENT FINAL_PART-1.1338 IS DISTORTING EXCESSIVELY.
   ELEMENT FINAL_PART-1.1403 IS DISTORTING EXCESSIVELY.
   ELEMENT FINAL_PART-1.1404 IS DISTORTING EXCESSIVELY.
   ELEMENT FINAL_PART-1.1406 IS DISTORTING EXCESSIVELY.
   ELEMENT FINAL_PART-1.1407 IS DISTORTING EXCESSIVELY.
   ELEMENT FINAL_PART-1.1408 IS DISTORTING EXCESSIVELY.
   ELEMENT FINAL_PART-1.1409 IS DISTORTING EXCESSIVELY.
   ELEMENT FINAL_PART-1.1410 IS DISTORTING EXCESSIVELY.
   ELEMENT FINAL_PART-1.1411 IS DISTORTING EXCESSIVELY.
   ELEMENT FINAL_PART-1.1412 IS DISTORTING EXCESSIVELY.
   ELEMENT FINAL_PART-1.1413 IS DISTORTING EXCESSIVELY.
   ELEMENT FINAL_PART-1.1414 IS DISTORTING EXCESSIVELY.
   ELEMENT FINAL_PART-1.1415 IS DISTORTING EXCESSIVELY.
   ELEMENT FINAL_PART-1.1416 IS DISTORTING EXCESSIVELY.
   ELEMENT FINAL_PART-1.1417 IS DISTORTING EXCESSIVELY.
   ELEMENT FINAL_PART-1.1418 IS DISTORTING EXCESSIVELY.
   ELEMENT FINAL_PART-1.1419 IS DISTORTING EXCESSIVELY.
   ELEMENT FINAL_PART-1.1420 IS DISTORTING EXCESSIVELY.
   ELEMENT FINAL_PART-1.1421 IS DISTORTING EXCESSIVELY.
   ELEMENT FINAL_PART-1.1422 IS DISTORTING EXCESSIVELY.
   ELEMENT FINAL_PART-1.1423 IS DISTORTING EXCESSIVELY.
   ELEMENT FINAL_PART-1.1424 IS DISTORTING EXCESSIVELY.
   ELEMENT FINAL_PART-1.1425 IS DISTORTING EXCESSIVELY.
   ELEMENT FINAL_PART-1.1426 IS DISTORTING EXCESSIVELY.
   ELEMENT FINAL_PART-1.1427 IS DISTORTING EXCESSIVELY.
   ELEMENT FINAL_PART-1.1428 IS DISTORTING EXCESSIVELY.
   ELEMENT FINAL_PART-1.1429 IS DISTORTING EXCESSIVELY.
   ELEMENT FINAL_PART-1.1430 IS DISTORTING EXCESSIVELY.
   ELEMENT FINAL_PART-1.1431 IS DISTORTING EXCESSIVELY.
   ELEMENT FINAL_PART-1.1432 IS DISTORTING EXCESSIVELY.
   ELEMENT FINAL_PART-1.1433 IS DISTORTING EXCESSIVELY.
   ELEMENT FINAL_PART-1.1434 IS DISTORTING EXCESSIVELY.
   ELEMENT FINAL_PART-1.1435 IS DISTORTING EXCESSIVELY.
   ELEMENT FINAL_PART-1.1436 IS DISTORTING EXCESSIVELY.
   ELEMENT FINAL_PART-1.1437 IS DISTORTING EXCESSIVELY.
   ELEMENT FINAL_PART-1.1438 IS DISTORTING EXCESSIVELY.
   ELEMENT FINAL_PART-1.1439 IS DISTORTING EXCESSIVELY.
   ELEMENT FINAL_PART-1.1440 IS DISTORTING EXCESSIVELY.
   ELEMENT FINAL_PART-1.1441 IS DISTORTING EXCESSIVELY.
   ELEMENT FINAL_PART-1.1442 IS DISTORTING EXCESSIVELY.
   ELEMENT FINAL_PART-1.1443 IS DISTORTING EXCESSIVELY.
   ELEMENT FINAL_PART-1.1444 IS DISTORTING EXCESSIVELY.
   ELEMENT FINAL_PART-1.1445 IS DISTORTING EXCESSIVELY.
   ELEMENT FINAL_PART-1.1446 IS DISTORTING EXCESSIVELY.
   ELEMENT FINAL_PART-1.1447 IS DISTORTING EXCESSIVELY.
   ELEMENT FINAL_PART-1.1448 IS DISTORTING EXCESSIVELY.
   ELEMENT FINAL_PART-1.1449 IS DISTORTING EXCESSIVELY.
   ELEMENT FINAL_PART-1.1450 IS DISTORTING EXCESSIVELY.
   ELEMENT FINAL_PART-1.1451 IS DISTORTING EXCESSIVELY.
   ELEMENT FINAL_PART-1.1452 IS DISTORTING EXCESSIVELY.
   ELEMENT FINAL_PART-1.1453 IS DISTORTING EXCESSIVELY.
   ELEMENT FINAL_PART-1.1454 IS DISTORTING EXCESSIVELY.
   ELEMENT FINAL_PART-1.1455 IS DISTORTING EXCESSIVELY.
   ELEMENT FINAL_PART-1.1456 IS DISTORTING EXCESSIVELY.
   ELEMENT FINAL_PART-1.1457 IS DISTORTING EXCESSIVELY.
   ELEMENT FINAL_PART-1.1458 IS DISTORTING EXCESSIVELY.
   ELEMENT FINAL_PART-1.1459 IS DISTORTING EXCESSIVELY.
   ELEMENT FINAL_PART-1.1460 IS DISTORTING EXCESSIVELY.
   ELEMENT FINAL_PART-1.1461 IS DISTORTING EXCESSIVELY.
   ELEMENT FINAL_PART-1.1462 IS DISTORTING EXCESSIVELY.
   ELEMENT FINAL_PART-1.1463 IS DISTORTING EXCESSIVELY.
   ELEMENT FINAL_PART-1.1464 IS DISTORTING EXCESSIVELY.
   ELEMENT FINAL_PART-1.1465 IS DISTORTING EXCESSIVELY.
   ELEMENT FINAL_PART-1.1466 IS DISTORTING EXCESSIVELY.
   ELEMENT FINAL_PART-1.1467 IS DISTORTING EXCESSIVELY.
   ELEMENT FINAL_PART-1.1468 IS DISTORTING EXCESSIVELY.
   ELEMENT FINAL_PART-1.1469 IS DISTORTING EXCESSIVELY.
   ELEMENT FINAL_PART-1.1470 IS DISTORTING EXCESSIVELY.
   ELEMENT FINAL_PART-1.1471 IS DISTORTING EXCESSIVELY.
   ELEMENT FINAL_PART-1.1472 IS DISTORTING EXCESSIVELY.
   ELEMENT FINAL_PART-1.1473 IS DISTORTING EXCESSIVELY.
   ELEMENT FINAL_PART-1.1474 IS DISTORTING EXCESSIVELY.
   ELEMENT FINAL_PART-1.1475 IS DISTORTING EXCESSIVELY.
   ELEMENT FINAL_PART-1.1476 IS DISTORTING EXCESSIVELY.
   ELEMENT FINAL_PART-1.1477 IS DISTORTING EXCESSIVELY.
   ELEMENT FINAL_PART-1.1478 IS DISTORTING EXCESSIVELY.
   ELEMENT FINAL_PART-1.1479 IS DISTORTING EXCESSIVELY.
   ELEMENT FINAL_PART-1.1480 IS DISTORTING EXCESSIVELY.
   ELEMENT FINAL_PART-1.1481 IS DISTORTING EXCESSIVELY.
   ELEMENT FINAL_PART-1.1482 IS DISTORTING EXCESSIVELY.
   ELEMENT FINAL_PART-1.1483 IS DISTORTING EXCESSIVELY.
   ELEMENT FINAL_PART-1.1484 IS DISTORTING EXCESSIVELY.
   ELEMENT FINAL_PART-1.1485 IS DISTORTING EXCESSIVELY.
   ELEMENT FINAL_PART-1.1486 IS DISTORTING EXCESSIVELY.
   ELEMENT FINAL_PART-1.1487 IS DISTORTING EXCESSIVELY.
   ELEMENT FINAL_PART-1.1488 IS DISTORTING EXCESSIVELY.
   ELEMENT FINAL_PART-1.1489 IS DISTORTING EXCESSIVELY.
   ELEMENT FINAL_PART-1.1490 IS DISTORTING EXCESSIVELY.
   ELEMENT FINAL_PART-1.1491 IS DISTORTING EXCESSIVELY.
   ELEMENT FINAL_PART-1.1492 IS DISTORTING EXCESSIVELY.
   ELEMENT FINAL_PART-1.1493 IS DISTORTING EXCESSIVELY.
   ELEMENT FINAL_PART-1.1494 IS DISTORTING EXCESSIVELY.
   ELEMENT FINAL_PART-1.1495 IS DISTORTING EXCESSIVELY.
   ELEMENT FINAL_PART-1.1496 IS DISTORTING EXCESSIVELY.
   ELEMENT FINAL_PART-1.1497 IS DISTORTING EXCESSIVELY.
   ELEMENT FINAL_PART-1.1498 IS DISTORTING EXCESSIVELY.
   ELEMENT FINAL_PART-1.1499 IS DISTORTING EXCESSIVELY.
   ELEMENT FINAL_PART-1.1500 IS DISTORTING EXCESSIVELY.
   ELEMENT FINAL_PART-1.1501 IS DISTORTING EXCESSIVELY.
   ELEMENT FINAL_PART-1.1502 IS DISTORTING EXCESSIVELY.
   ELEMENT FINAL_PART-1.1503 IS DISTORTING EXCESSIVELY.
   ELEMENT FINAL_PART-1.1505 IS DISTORTING EXCESSIVELY.
   ELEMENT FINAL_PART-1.1506 IS DISTORTING EXCESSIVELY.
   ELEMENT FINAL_PART-1.1507 IS DISTORTING EXCESSIVELY.
   ELEMENT FINAL_PART-1.1508 IS DISTORTING EXCESSIVELY.
   ELEMENT FINAL_PART-1.1509 IS DISTORTING EXCESSIVELY.
   ELEMENT FINAL_PART-1.1510 IS DISTORTING EXCESSIVELY.
   ELEMENT FINAL_PART-1.1511 IS DISTORTING EXCESSIVELY.
   ELEMENT FINAL_PART-1.1512 IS DISTORTING EXCESSIVELY.
   ELEMENT FINAL_PART-1.1513 IS DISTORTING EXCESSIVELY.
   ELEMENT FINAL_PART-1.1514 IS DISTORTING EXCESSIVELY.
   ELEMENT FINAL_PART-1.1515 IS DISTORTING EXCESSIVELY.
   ELEMENT FINAL_PART-1.1516 IS DISTORTING EXCESSIVELY.
   ELEMENT FINAL_PART-1.1517 IS DISTORTING EXCESSIVELY.
   ELEMENT FINAL_PART-1.1518 IS DISTORTING EXCESSIVELY.
   ELEMENT FINAL_PART-1.1519 IS DISTORTING EXCESSIVELY.
   ELEMENT FINAL_PART-1.1520 IS DISTORTING EXCESSIVELY.
   ELEMENT FINAL_PART-1.1521 IS DISTORTING EXCESSIVELY.
   ELEMENT FINAL_PART-1.1522 IS DISTORTING EXCESSIVELY.
   ELEMENT FINAL_PART-1.1523 IS DISTORTING EXCESSIVELY.
   ELEMENT FINAL_PART-1.1524 IS DISTORTING EXCESSIVELY.
   ELEMENT FINAL_PART-1.1525 IS DISTORTING EXCESSIVELY.
   ELEMENT FINAL_PART-1.1526 IS DISTORTING EXCESSIVELY.
   ELEMENT FINAL_PART-1.1527 IS DISTORTING EXCESSIVELY.
   ELEMENT FINAL_PART-1.1528 IS DISTORTING EXCESSIVELY.
   ELEMENT FINAL_PART-1.1529 IS DISTORTING EXCESSIVELY.
   ELEMENT FINAL_PART-1.1530 IS DISTORTING EXCESSIVELY.
   ELEMENT FINAL_PART-1.1531 IS DISTORTING EXCESSIVELY.
   ELEMENT FINAL_PART-1.1532 IS DISTORTING EXCESSIVELY.
   ELEMENT FINAL_PART-1.1533 IS DISTORTING EXCESSIVELY.
   ELEMENT FINAL_PART-1.1534 IS DISTORTING EXCESSIVELY.
   ELEMENT FINAL_PART-1.1535 IS DISTORTING EXCESSIVELY.
   ELEMENT FINAL_PART-1.1536 IS DISTORTING EXCESSIVELY.
   ELEMENT FINAL_PART-1.1537 IS DISTORTING EXCESSIVELY.
   ELEMENT FINAL_PART-1.1538 IS DISTORTING EXCESSIVELY.
   ELEMENT FINAL_PART-1.1539 IS DISTORTING EXCESSIVELY.
   ELEMENT FINAL_PART-1.1540 IS DISTORTING EXCESSIVELY.
   ELEMENT FINAL_PART-1.1541 IS DISTORTING EXCESSIVELY.
   ELEMENT FINAL_PART-1.1542 IS DISTORTING EXCESSIVELY.
   ELEMENT FINAL_PART-1.1543 IS DISTORTING EXCESSIVELY.
   ELEMENT FINAL_PART-1.1544 IS DISTORTING EXCESSIVELY.
   ELEMENT FINAL_PART-1.1545 IS DISTORTING EXCESSIVELY.
   ELEMENT FINAL_PART-1.1546 IS DISTORTING EXCESSIVELY.
   ELEMENT FINAL_PART-1.1547 IS DISTORTING EXCESSIVELY.
   ELEMENT FINAL_PART-1.1548 IS DISTORTING EXCESSIVELY.
   ELEMENT FINAL_PART-1.1549 IS DISTORTING EXCESSIVELY.
   ELEMENT FINAL_PART-1.1550 IS DISTORTING EXCESSIVELY.
   ELEMENT FINAL_PART-1.1551 IS DISTORTING EXCESSIVELY.
   ELEMENT FINAL_PART-1.1552 IS DISTORTING EXCESSIVELY.
   ELEMENT FINAL_PART-1.1553 IS DISTORTING EXCESSIVELY.
   ELEMENT FINAL_PART-1.1554 IS DISTORTING EXCESSIVELY.
   ELEMENT FINAL_PART-1.1555 IS DISTORTING EXCESSIVELY.
   ELEMENT FINAL_PART-1.1556 IS DISTORTING EXCESSIVELY.
   ELEMENT FINAL_PART-1.1557 IS DISTORTING EXCESSIVELY.
   ELEMENT FINAL_PART-1.1558 IS DISTORTING EXCESSIVELY.
   ELEMENT FINAL_PART-1.1559 IS DISTORTING EXCESSIVELY.
   ELEMENT FINAL_PART-1.1560 IS DISTORTING EXCESSIVELY.
   ELEMENT FINAL_PART-1.1561 IS DISTORTING EXCESSIVELY.
   ELEMENT FINAL_PART-1.1562 IS DISTORTING EXCESSIVELY.
   ELEMENT FINAL_PART-1.1563 IS DISTORTING EXCESSIVELY.
   ELEMENT FINAL_PART-1.1564 IS DISTORTING EXCESSIVELY.
   ELEMENT FINAL_PART-1.1565 IS DISTORTING EXCESSIVELY.
   ELEMENT FINAL_PART-1.1566 IS DISTORTING EXCESSIVELY.
   ELEMENT FINAL_PART-1.1567 IS DISTORTING EXCESSIVELY.
   ELEMENT FINAL_PART-1.1568 IS DISTORTING EXCESSIVELY.
   ELEMENT FINAL_PART-1.1569 IS DISTORTING EXCESSIVELY.
   ELEMENT FINAL_PART-1.1570 IS DISTORTING EXCESSIVELY.
   ELEMENT FINAL_PART-1.1571 IS DISTORTING EXCESSIVELY.
   ELEMENT FINAL_PART-1.1572 IS DISTORTING EXCESSIVELY.
   ELEMENT FINAL_PART-1.1573 IS DISTORTING EXCESSIVELY.
   ELEMENT FINAL_PART-1.1574 IS DISTORTING EXCESSIVELY.
   ELEMENT FINAL_PART-1.1575 IS DISTORTING EXCESSIVELY.
   ELEMENT FINAL_PART-1.1576 IS DISTORTING EXCESSIVELY.
   ELEMENT FINAL_PART-1.1577 IS DISTORTING EXCESSIVELY.
   ELEMENT FINAL_PART-1.1578 IS DISTORTING EXCESSIVELY.
   ELEMENT FINAL_PART-1.1579 IS DISTORTING EXCESSIVELY.
   ELEMENT FINAL_PART-1.1580 IS DISTORTING EXCESSIVELY.
   ELEMENT FINAL_PART-1.1581 IS DISTORTING EXCESSIVELY.
   ELEMENT FINAL_PART-1.1582 IS DISTORTING EXCESSIVELY.
   ELEMENT FINAL_PART-1.1583 IS DISTORTING EXCESSIVELY.
   ELEMENT FINAL_PART-1.1584 IS DISTORTING EXCESSIVELY.
   ELEMENT FINAL_PART-1.1585 IS DISTORTING EXCESSIVELY.
   ELEMENT FINAL_PART-1.1586 IS DISTORTING EXCESSIVELY.
   ELEMENT FINAL_PART-1.1587 IS DISTORTING EXCESSIVELY.
   ELEMENT FINAL_PART-1.1588 IS DISTORTING EXCESSIVELY.
   ELEMENT FINAL_PART-1.1589 IS DISTORTING EXCESSIVELY.
   ELEMENT FINAL_PART-1.1590 IS DISTORTING EXCESSIVELY.
   ELEMENT FINAL_PART-1.1591 IS DISTORTING EXCESSIVELY.
   ELEMENT FINAL_PART-1.1592 IS DISTORTING EXCESSIVELY.
   ELEMENT FINAL_PART-1.1593 IS DISTORTING EXCESSIVELY.
   ELEMENT FINAL_PART-1.1594 IS DISTORTING EXCESSIVELY.
   ELEMENT FINAL_PART-1.1595 IS DISTORTING EXCESSIVELY.
   ELEMENT FINAL_PART-1.1596 IS DISTORTING EXCESSIVELY.
   ELEMENT FINAL_PART-1.1597 IS DISTORTING EXCESSIVELY.
   ELEMENT FINAL_PART-1.1598 IS DISTORTING EXCESSIVELY.
   ELEMENT FINAL_PART-1.1599 IS DISTORTING EXCESSIVELY.
   ELEMENT FINAL_PART-1.1600 IS DISTORTING EXCESSIVELY.
   ELEMENT FINAL_PART-1.1601 IS DISTORTING EXCESSIVELY.
   ELEMENT FINAL_PART-1.1602 IS DISTORTING EXCESSIVELY.

 ***WARNING: EXCESSIVE DISTORTION AT A TOTAL OF 258 INTEGRATION POINTS IN SOLID 
             (CONTINUUM) ELEMENTS
 

 ***NOTE: ELEMENTS ARE DISTORTING EXCESSIVELY. CONVERGENCE IS JUDGED UNLIKELY.
 

 ***ERROR: TOO MANY ATTEMPTS MADE FOR THIS INCREMENT



     ANALYSIS SUMMARY:
     TOTAL OF          1  INCREMENTS
                       5  CUTBACKS IN AUTOMATIC INCREMENTATION
                       5  ITERATIONS INCLUDING CONTACT ITERATIONS IF PRESENT
                       5  PASSES THROUGH THE EQUATION SOLVER OF WHICH 
                       5  INVOLVE MATRIX DECOMPOSITION, INCLUDING
                       0  DECOMPOSITION(S) OF THE MASS MATRIX
                       1  REORDERING OF EQUATIONS TO MINIMIZE WAVEFRONT
                       0  ADDITIONAL RESIDUAL EVALUATIONS FOR LINE SEARCHES
                       0  ADDITIONAL OPERATOR EVALUATIONS FOR LINE SEARCHES
                       4  WARNING MESSAGES DURING USER INPUT PROCESSING
                       5  WARNING MESSAGES DURING ANALYSIS
                       0  ANALYSIS WARNINGS ARE NUMERICAL PROBLEM MESSAGES
                       0  ANALYSIS WARNINGS ARE NEGATIVE EIGENVALUE MESSAGES
                       1  ERROR MESSAGES



     JOB TIME SUMMARY
       USER TIME (SEC)      =     2.05E+02
       SYSTEM TIME (SEC)    =      33.    
       TOTAL CPU TIME (SEC) =     2.38E+02
       WALLCLOCK TIME (SEC) =           85
       MEMORY PEAK (GB)     =            0
