 Abaqus/Standard 2025                  DATE 22-Feb-2026 TIME 23:49:21
 SUMMARY OF JOB INFORMATION:
 STEP  INC ATT SEVERE EQUIL TOTAL  TOTAL      STEP       INC OF       DOF    IF
               DISCON ITERS ITERS  TIME/    TIME/LPF    TIME/LPF    MONITOR RIKS
               ITERS               FREQ
   1     1   1U    0     1     1  0.00       0.00       1.000     
   1     1   2U    0     2     2  0.00       0.00       0.2500    
   1     1   3U    0     2     2  0.00       0.00       0.06250   
   1     1   4U    0     4     4  0.00       0.00       0.01562   
   1     1   5     0     8     8  0.00391    0.00391    0.003906  
   1     2   1     0     4     4  0.00781    0.00781    0.003906  
   1     3   1     0     4     4  0.0117     0.0117     0.003906  
   1     4   1     0     4     4  0.0176     0.0176     0.005859  
   1     5   1     0     5     5  0.0264     0.0264     0.008789  
   1     6   1     0     5     5  0.0352     0.0352     0.008789  
   1     7   1     0     4     4  0.0439     0.0439     0.008789  
   1     8   1     0     4     4  0.0527     0.0527     0.008789  
   1     9   1     0     4     4  0.0659     0.0659     0.01318   
   1    10   1     0     5     5  0.0857     0.0857     0.01978   
   1    11   1     0     4     4  0.105      0.105      0.01978   
   1    12   1     0     4     4  0.125      0.125      0.01978   
   1    13   1     0     5     5  0.155      0.155      0.02966   
   1    14   1     0     5     5  0.185      0.185      0.02966   
   1    15   1     0     4     4  0.214      0.214      0.02966   
   1    16   1     0     4     4  0.244      0.244      0.02966   
   1    17   1     0     5     5  0.288      0.288      0.04449   
   1    18   1     0     5     5  0.333      0.333      0.04449   
   1    19   1     0     6     6  0.377      0.377      0.04449   
   1    20   1     0     6     6  0.422      0.422      0.04449   
   1    21   1     0     6     6  0.466      0.466      0.04449   
   1    22   1     0     9     9  0.511      0.511      0.04449   
   1    23   1U    0     5     5  0.511      0.511      0.04449   
   1    23   2     0     4     4  0.522      0.522      0.01112   
   1    24   1     0     5     5  0.533      0.533      0.01112   
   1    25   1     0     5     5  0.544      0.544      0.01112   
   1    26   1     0     5     5  0.555      0.555      0.01112   
   1    27   1     0     5     5  0.566      0.566      0.01112   
   1    28   1     0     4     4  0.578      0.578      0.01112   
   1    29   1     0     4     4  0.589      0.589      0.01112   
   1    30   1     0     4     4  0.605      0.605      0.01669   
   1    31   1     0     4     4  0.630      0.630      0.02503   
   1    32   1U    0     5     5  0.630      0.630      0.03754   
   1    32   2     0     4     4  0.640      0.640      0.009386  
   1    33   1     0     4     4  0.654      0.654      0.01408   
   1    34   1     0     4     4  0.675      0.675      0.02112   
   1    35   1     0     4     4  0.707      0.707      0.03168   
   1    36   1U    0     6     6  0.707      0.707      0.04751   
   1    36   2     0     4     4  0.719      0.719      0.01188   
   1    37   1     0     6     6  0.736      0.736      0.01782   
   1    38   1     0     4     4  0.754      0.754      0.01782   
   1    39   1     0     4     4  0.772      0.772      0.01782   
   1    40   1     0     4     4  0.799      0.799      0.02673   
   1    41   1U    0     5     5  0.799      0.799      0.04009   
   1    41   2     0     7     7  0.809      0.809      0.01002   
   1    42   1     0     4     4  0.819      0.819      0.01002   
   1    43   1     0     4     4  0.829      0.829      0.01002   
   1    44   1     0     4     4  0.844      0.844      0.01503   
   1    45   1U    0     5     5  0.844      0.844      0.02255   
   1    45   2     0     6     6  0.850      0.850      0.005638  
   1    46   1     0     3     3  0.855      0.855      0.005638  
   1    47   1     0     4     4  0.861      0.861      0.005638  
   1    48   1     0     4     4  0.869      0.869      0.008457  
   1    49   1     0     4     4  0.882      0.882      0.01268   
   1    50   1     0     4     4  0.901      0.901      0.01903   
   1    51   1U    0     7     7  0.901      0.901      0.02854   
   1    51   2     0     4     4  0.908      0.908      0.007135  
   1    52   1     0     4     4  0.919      0.919      0.01070   
   1    53   1     0     4     4  0.935      0.935      0.01605   
   1    54   1     0     4     4  0.959      0.959      0.02408   
   1    55   1U    0     7     7  0.959      0.959      0.03612   
   1    55   2     0     4     4  0.968      0.968      0.009031  
   1    56   1U    0     7     7  0.968      0.968      0.01355   
   1    56   2     0     2     2  0.971      0.971      0.003386  
   1    57   1     0     2     2  0.976      0.976      0.005080  
   1    58   1     0     5     5  0.984      0.984      0.007620  
   1    59   1     0     4     4  0.992      0.992      0.007620  
   1    60   1     0     4     4  0.999      0.999      0.007620  
   1    61   1     0     2     2  1.00       1.00       0.0007268 
                          
 THE ANALYSIS HAS COMPLETED SUCCESSFULLY
