1

   Abaqus 2025                                  Date 22-Feb-2026   Time 23:49:03
   For use by UNIVERSITAET STUTTGART under license from Dassault Systemes or its subsidiary.

                                                                                 
                                                                                 
 STEP    1     INCREMENT     1     STEP TIME    0.00    


                        S T E P       1     S T A T I C   A N A L Y S I S


                                                                                          

     AUTOMATIC TIME CONTROL WITH -
          A SUGGESTED INITIAL TIME INCREMENT OF                 1.00    
          AND A TOTAL TIME PERIOD OF                            1.00    
          THE MINIMUM TIME INCREMENT ALLOWED IS                1.000E-05
          THE MAXIMUM TIME INCREMENT ALLOWED IS                 1.00    

     LINEAR EQUATION SOLVER TYPE         DIRECT SPARSE

 CONVERGENCE TOLERANCE PARAMETERS FOR FORCE    
     CRITERION FOR RESIDUAL FORCE     FOR A NONLINEAR PROBLEM          5.000E-03
     CRITERION FOR DISP.    CORRECTION IN A NONLINEAR PROBLEM          1.000E-02
     INITIAL VALUE OF TIME AVERAGE FORCE                               1.000E-02
     AVERAGE FORCE     IS TIME AVERAGE FORCE    
     ALTERNATE CRIT. FOR RESIDUAL FORCE     FOR A NONLINEAR PROBLEM    2.000E-02
     CRITERION FOR ZERO FORCE     RELATIVE TO TIME AVRG. FORCE         1.000E-05
     CRITERION FOR RESIDUAL FORCE     WHEN THERE IS ZERO FLUX          1.000E-05
     CRITERION FOR DISP.    CORRECTION WHEN THERE IS ZERO FLUX         1.000E-03
     CRITERION FOR RESIDUAL FORCE     FOR A LINEAR INCREMENT           1.000E-08
     FIELD CONVERSION RATIO                                             1.00    
     CRITERION FOR ZERO FORCE     REL. TO TIME AVRG. MAX. FORCE        1.000E-05
     CRITERION FOR ZERO DISP.    RELATIVE TO CHARACTERISTIC LENGTH     1.000E-08

     VOLUMETRIC STRAIN COMPATIBILITY TOLERANCE FOR HYBRID SOLIDS       1.000E-05
     AXIAL STRAIN COMPATIBILITY TOLERANCE FOR HYBRID BEAMS             1.000E-05
     TRANS. SHEAR STRAIN COMPATIBILITY TOLERANCE FOR HYBRID BEAMS      1.000E-05
     SOFT CONTACT CONSTRAINT COMPATIBILITY TOLERANCE FOR P>P0          5.000E-03
     SOFT CONTACT CONSTRAINT COMPATIBILITY TOLERANCE FOR P=0.0         0.100    
     CONTACT FORCE ERROR TOLERANCE FOR CONVERT SDI=YES                 1.00    
     DISPLACEMENT COMPATIBILITY TOLERANCE FOR DCOUP ELEMENTS           1.000E-05
     ROTATION COMPATIBILITY TOLERANCE FOR DCOUP ELEMENTS               1.000E-05

 EQUILIBRIUM WILL BE CHECKED FOR SEVERE DISCONTINUITY ITERATIONS

 TIME INCREMENTATION CONTROL PARAMETERS:
     FIRST EQUILIBRIUM ITERATION FOR CONSECUTIVE DIVERGENCE CHECK              4
     EQUILIBRIUM ITERATION AT WHICH LOG. CONVERGENCE RATE CHECK BEGINS         8
     EQUILIBRIUM ITERATION AFTER WHICH ALTERNATE RESIDUAL IS USED              9
     MAXIMUM EQUILIBRIUM ITERATIONS ALLOWED                                   16
     EQUILIBRIUM ITERATION COUNT FOR CUT-BACK IN NEXT INCREMENT               10
     MAXIMUM EQUILIB. ITERS IN TWO INCREMENTS FOR TIME INCREMENT INCREASE      4
     MAXIMUM ITERATIONS FOR SEVERE DISCONTINUITIES                            50
     MAXIMUM ATTEMPTS ALLOWED IN AN INCREMENT                                  5
     MAXIMUM DISCON. ITERS IN TWO INCREMENTS FOR TIME INCREMENT INCREASE      50
     MAXIMUM CONTACT AUGMENTATIONS FOR *SURFACE BEHAVIOR,AUGMENTED LAGRANGE   50
     CUT-BACK FACTOR AFTER DIVERGENCE                                 0.2500    
     CUT-BACK FACTOR FOR TOO SLOW CONVERGENCE                         0.5000    
     CUT-BACK FACTOR AFTER TOO MANY EQUILIBRIUM ITERATIONS            0.7500    
     CUT-BACK FACTOR AFTER TOO MANY SEVERE DISCONTINUITY ITERATIONS   0.2500    
     CUT-BACK FACTOR AFTER PROBLEMS IN ELEMENT ASSEMBLY               0.2500    
     INCREASE FACTOR AFTER TWO INCREMENTS THAT CONVERGE QUICKLY        1.500    
     MAX. TIME INCREMENT INCREASE FACTOR ALLOWED                       1.500    
     MAX. TIME INCREMENT INCREASE FACTOR ALLOWED (DYNAMICS)            1.250    
     MAX. TIME INCREMENT INCREASE FACTOR ALLOWED (DIFFUSION)           2.000    
     MINIMUM TIME INCREMENT RATIO FOR EXTRAPOLATION TO OCCUR          0.1000    
     MAX. RATIO OF TIME INCREMENT TO STABILITY LIMIT                   1.000    
     FRACTION OF STABILITY LIMIT FOR NEW TIME INCREMENT               0.9500    
     TIME INCREMENT INCREASE FACTOR BEFORE A TIME POINT                1.000    
     GLOBAL STABILIZATION CONTROL IS NOT USED

          PRINT OF INCREMENT NUMBER, TIME, ETC., EVERY    1  INCREMENTS

     THE MAXIMUM NUMBER OF INCREMENTS IN THIS STEP IS                     100

          LARGE DISPLACEMENT THEORY WILL BE USED

     LINEAR EXTRAPOLATION WILL BE USED

     CHARACTERISTIC ELEMENT LENGTH     4.682E-04

     DETAILS REGARDING ACTUAL SOLUTION WAVEFRONT REQUESTED

     DETAILED OUTPUT OF DIAGNOSTICS TO DATABASE REQUESTED

     PRINT OF INCREMENT NUMBER, TIME, ETC., TO THE MESSAGE FILE EVERY     1  INCREMENTS

     COLLECTING MODEL CONSTRAINT INFORMATION FOR OVERCONSTRAINT CHECKS

     COLLECTING STEP CONSTRAINT INFORMATION FOR OVERCONSTRAINT CHECKS


  INCREMENT     1 STARTS. ATTEMPT NUMBER  1, TIME INCREMENT   1.00    
 
	SYMMETRIC PURE THREAD-BASED DIRECT SPARSE SOLVER RUNNING ON
 	1 HOST x 1 MPI RANK PER HOST x 1 THREAD PER RANK
        NUMBER OF EQUATIONS:  409818
        NUMBER OF RHS:        1
        NUMBER OF FLOPS:      8.048e+10
        SOLVER ELAPSED TIME:  2.9s
   ELEMENT FINAL_PART-1.225 IS DISTORTING EXCESSIVELY.
   ELEMENT FINAL_PART-1.226 IS DISTORTING EXCESSIVELY.
   ELEMENT FINAL_PART-1.227 IS DISTORTING EXCESSIVELY.
   ELEMENT FINAL_PART-1.228 IS DISTORTING EXCESSIVELY.
   ELEMENT FINAL_PART-1.229 IS DISTORTING EXCESSIVELY.
   ELEMENT FINAL_PART-1.230 IS DISTORTING EXCESSIVELY.
   ELEMENT FINAL_PART-1.231 IS DISTORTING EXCESSIVELY.
   ELEMENT FINAL_PART-1.232 IS DISTORTING EXCESSIVELY.
   ELEMENT FINAL_PART-1.233 IS DISTORTING EXCESSIVELY.
   ELEMENT FINAL_PART-1.234 IS DISTORTING EXCESSIVELY.
   ELEMENT FINAL_PART-1.235 IS DISTORTING EXCESSIVELY.
   ELEMENT FINAL_PART-1.236 IS DISTORTING EXCESSIVELY.
   ELEMENT FINAL_PART-1.237 IS DISTORTING EXCESSIVELY.
   ELEMENT FINAL_PART-1.238 IS DISTORTING EXCESSIVELY.
   ELEMENT FINAL_PART-1.239 IS DISTORTING EXCESSIVELY.
   ELEMENT FINAL_PART-1.240 IS DISTORTING EXCESSIVELY.
   ELEMENT FINAL_PART-1.241 IS DISTORTING EXCESSIVELY.
   ELEMENT FINAL_PART-1.242 IS DISTORTING EXCESSIVELY.
   ELEMENT FINAL_PART-1.243 IS DISTORTING EXCESSIVELY.
   ELEMENT FINAL_PART-1.244 IS DISTORTING EXCESSIVELY.
   ELEMENT FINAL_PART-1.245 IS DISTORTING EXCESSIVELY.
   ELEMENT FINAL_PART-1.246 IS DISTORTING EXCESSIVELY.
   ELEMENT FINAL_PART-1.247 IS DISTORTING EXCESSIVELY.
   ELEMENT FINAL_PART-1.248 IS DISTORTING EXCESSIVELY.
   ELEMENT FINAL_PART-1.249 IS DISTORTING EXCESSIVELY.
   ELEMENT FINAL_PART-1.250 IS DISTORTING EXCESSIVELY.
   ELEMENT FINAL_PART-1.251 IS DISTORTING EXCESSIVELY.
   ELEMENT FINAL_PART-1.252 IS DISTORTING EXCESSIVELY.
   ELEMENT FINAL_PART-1.253 IS DISTORTING EXCESSIVELY.
   ELEMENT FINAL_PART-1.254 IS DISTORTING EXCESSIVELY.
   ELEMENT FINAL_PART-1.255 IS DISTORTING EXCESSIVELY.
   ELEMENT FINAL_PART-1.256 IS DISTORTING EXCESSIVELY.
   ELEMENT FINAL_PART-1.257 IS DISTORTING EXCESSIVELY.
   ELEMENT FINAL_PART-1.258 IS DISTORTING EXCESSIVELY.
   ELEMENT FINAL_PART-1.259 IS DISTORTING EXCESSIVELY.
   ELEMENT FINAL_PART-1.260 IS DISTORTING EXCESSIVELY.
   ELEMENT FINAL_PART-1.261 IS DISTORTING EXCESSIVELY.
   ELEMENT FINAL_PART-1.262 IS DISTORTING EXCESSIVELY.
   ELEMENT FINAL_PART-1.263 IS DISTORTING EXCESSIVELY.
   ELEMENT FINAL_PART-1.264 IS DISTORTING EXCESSIVELY.
   ELEMENT FINAL_PART-1.265 IS DISTORTING EXCESSIVELY.
   ELEMENT FINAL_PART-1.266 IS DISTORTING EXCESSIVELY.
   ELEMENT FINAL_PART-1.267 IS DISTORTING EXCESSIVELY.
   ELEMENT FINAL_PART-1.268 IS DISTORTING EXCESSIVELY.
   ELEMENT FINAL_PART-1.269 IS DISTORTING EXCESSIVELY.
   ELEMENT FINAL_PART-1.270 IS DISTORTING EXCESSIVELY.
   ELEMENT FINAL_PART-1.271 IS DISTORTING EXCESSIVELY.
   ELEMENT FINAL_PART-1.272 IS DISTORTING EXCESSIVELY.
   ELEMENT FINAL_PART-1.273 IS DISTORTING EXCESSIVELY.
   ELEMENT FINAL_PART-1.274 IS DISTORTING EXCESSIVELY.
   ELEMENT FINAL_PART-1.275 IS DISTORTING EXCESSIVELY.
   ELEMENT FINAL_PART-1.276 IS DISTORTING EXCESSIVELY.
   ELEMENT FINAL_PART-1.277 IS DISTORTING EXCESSIVELY.
   ELEMENT FINAL_PART-1.278 IS DISTORTING EXCESSIVELY.
   ELEMENT FINAL_PART-1.279 IS DISTORTING EXCESSIVELY.
   ELEMENT FINAL_PART-1.280 IS DISTORTING EXCESSIVELY.
   ELEMENT FINAL_PART-1.281 IS DISTORTING EXCESSIVELY.
   ELEMENT FINAL_PART-1.282 IS DISTORTING EXCESSIVELY.
   ELEMENT FINAL_PART-1.283 IS DISTORTING EXCESSIVELY.
   ELEMENT FINAL_PART-1.284 IS DISTORTING EXCESSIVELY.
   ELEMENT FINAL_PART-1.285 IS DISTORTING EXCESSIVELY.
   ELEMENT FINAL_PART-1.286 IS DISTORTING EXCESSIVELY.
   ELEMENT FINAL_PART-1.287 IS DISTORTING EXCESSIVELY.
   ELEMENT FINAL_PART-1.288 IS DISTORTING EXCESSIVELY.
   ELEMENT FINAL_PART-1.289 IS DISTORTING EXCESSIVELY.
   ELEMENT FINAL_PART-1.290 IS DISTORTING EXCESSIVELY.
   ELEMENT FINAL_PART-1.291 IS DISTORTING EXCESSIVELY.
   ELEMENT FINAL_PART-1.292 IS DISTORTING EXCESSIVELY.
   ELEMENT FINAL_PART-1.293 IS DISTORTING EXCESSIVELY.
   ELEMENT FINAL_PART-1.294 IS DISTORTING EXCESSIVELY.
   ELEMENT FINAL_PART-1.295 IS DISTORTING EXCESSIVELY.
   ELEMENT FINAL_PART-1.296 IS DISTORTING EXCESSIVELY.
   ELEMENT FINAL_PART-1.297 IS DISTORTING EXCESSIVELY.
   ELEMENT FINAL_PART-1.298 IS DISTORTING EXCESSIVELY.
   ELEMENT FINAL_PART-1.299 IS DISTORTING EXCESSIVELY.
   ELEMENT FINAL_PART-1.300 IS DISTORTING EXCESSIVELY.
   ELEMENT FINAL_PART-1.301 IS DISTORTING EXCESSIVELY.
   ELEMENT FINAL_PART-1.302 IS DISTORTING EXCESSIVELY.
   ELEMENT FINAL_PART-1.303 IS DISTORTING EXCESSIVELY.
   ELEMENT FINAL_PART-1.304 IS DISTORTING EXCESSIVELY.
   ELEMENT FINAL_PART-1.305 IS DISTORTING EXCESSIVELY.
   ELEMENT FINAL_PART-1.306 IS DISTORTING EXCESSIVELY.
   ELEMENT FINAL_PART-1.307 IS DISTORTING EXCESSIVELY.
   ELEMENT FINAL_PART-1.308 IS DISTORTING EXCESSIVELY.
   ELEMENT FINAL_PART-1.309 IS DISTORTING EXCESSIVELY.
   ELEMENT FINAL_PART-1.310 IS DISTORTING EXCESSIVELY.
   ELEMENT FINAL_PART-1.311 IS DISTORTING EXCESSIVELY.
   ELEMENT FINAL_PART-1.312 IS DISTORTING EXCESSIVELY.
   ELEMENT FINAL_PART-1.313 IS DISTORTING EXCESSIVELY.
   ELEMENT FINAL_PART-1.314 IS DISTORTING EXCESSIVELY.
   ELEMENT FINAL_PART-1.315 IS DISTORTING EXCESSIVELY.
   ELEMENT FINAL_PART-1.316 IS DISTORTING EXCESSIVELY.
   ELEMENT FINAL_PART-1.317 IS DISTORTING EXCESSIVELY.
   ELEMENT FINAL_PART-1.318 IS DISTORTING EXCESSIVELY.
   ELEMENT FINAL_PART-1.319 IS DISTORTING EXCESSIVELY.
   ELEMENT FINAL_PART-1.320 IS DISTORTING EXCESSIVELY.
   ELEMENT FINAL_PART-1.321 IS DISTORTING EXCESSIVELY.
   ELEMENT FINAL_PART-1.322 IS DISTORTING EXCESSIVELY.
   ELEMENT FINAL_PART-1.323 IS DISTORTING EXCESSIVELY.

 ***WARNING: EXCESSIVE DISTORTION AT A TOTAL OF 99 INTEGRATION POINTS IN SOLID 
             (CONTINUUM) ELEMENTS
 

 ***NOTE: ELEMENTS ARE DISTORTING EXCESSIVELY. CONVERGENCE IS JUDGED UNLIKELY.


  INCREMENT     1 STARTS. ATTEMPT NUMBER  2, TIME INCREMENT  0.250    
 
	SYMMETRIC PURE THREAD-BASED DIRECT SPARSE SOLVER RUNNING ON
 	1 HOST x 1 MPI RANK PER HOST x 1 THREAD PER RANK
        NUMBER OF EQUATIONS:  409818
        NUMBER OF RHS:        1
        NUMBER OF FLOPS:      8.048e+10
        SOLVER ELAPSED TIME:  5.2s

               CONVERGENCE CHECKS FOR EQUILIBRIUM ITERATION     1


 AVERAGE FORCE                       573.       TIME AVG. FORCE        573.    
 LARGEST SCALED RESIDUAL FORCE      9.285E+03   AT NODE      45814   DOF  1
   INSTANCE: FINAL_PART-1                                                                    
  CORRESPONDING RESIDUAL FORCE      9.285E+03
 LARGEST INCREMENT OF DISP.        -0.105       AT NODE        289   DOF  3
   INSTANCE: FINAL_PART-1                                                                    
 LARGEST CORRECTION TO DISP.       -0.105       AT NODE        289   DOF  3
   INSTANCE: FINAL_PART-1                                                                    
          FORCE     EQUILIBRIUM NOT ACHIEVED WITHIN TOLERANCE.
 
	SYMMETRIC PURE THREAD-BASED DIRECT SPARSE SOLVER RUNNING ON
 	1 HOST x 1 MPI RANK PER HOST x 1 THREAD PER RANK
        NUMBER OF EQUATIONS:  409818
        NUMBER OF RHS:        1
        NUMBER OF FLOPS:      8.048e+10
        SOLVER ELAPSED TIME:  5.7s
 

 ***WARNING: THE SYSTEM MATRIX HAS 160070 NEGATIVE EIGENVALUES.

     NEGATIVE EIGENVALUES MEAN THAT THE SYSTEM MATRIX IS NOT 
     POSITIVE DEFINITE:
     FOR EXAMPLE, A BIFURCATION (BUCKLING) LOAD MAY HAVE BEEN EXCEEDED.
   ELEMENT FINAL_PART-1.1 IS DISTORTING EXCESSIVELY.
   ELEMENT FINAL_PART-1.3 IS DISTORTING EXCESSIVELY.
   ELEMENT FINAL_PART-1.4 IS DISTORTING EXCESSIVELY.
   ELEMENT FINAL_PART-1.6 IS DISTORTING EXCESSIVELY.
   ELEMENT FINAL_PART-1.7 IS DISTORTING EXCESSIVELY.
   ELEMENT FINAL_PART-1.8 IS DISTORTING EXCESSIVELY.
   ELEMENT FINAL_PART-1.9 IS DISTORTING EXCESSIVELY.
   ELEMENT FINAL_PART-1.10 IS DISTORTING EXCESSIVELY.
   ELEMENT FINAL_PART-1.11 IS DISTORTING EXCESSIVELY.
   ELEMENT FINAL_PART-1.13 IS DISTORTING EXCESSIVELY.
   ELEMENT FINAL_PART-1.17 IS DISTORTING EXCESSIVELY.
   ELEMENT FINAL_PART-1.18 IS DISTORTING EXCESSIVELY.
   ELEMENT FINAL_PART-1.19 IS DISTORTING EXCESSIVELY.
   ELEMENT FINAL_PART-1.20 IS DISTORTING EXCESSIVELY.
   ELEMENT FINAL_PART-1.21 IS DISTORTING EXCESSIVELY.
   ELEMENT FINAL_PART-1.22 IS DISTORTING EXCESSIVELY.
   ELEMENT FINAL_PART-1.26 IS DISTORTING EXCESSIVELY.
   ELEMENT FINAL_PART-1.27 IS DISTORTING EXCESSIVELY.
   ELEMENT FINAL_PART-1.30 IS DISTORTING EXCESSIVELY.
   ELEMENT FINAL_PART-1.32 IS DISTORTING EXCESSIVELY.
   ELEMENT FINAL_PART-1.34 IS DISTORTING EXCESSIVELY.
   ELEMENT FINAL_PART-1.35 IS DISTORTING EXCESSIVELY.
   ELEMENT FINAL_PART-1.36 IS DISTORTING EXCESSIVELY.
   ELEMENT FINAL_PART-1.38 IS DISTORTING EXCESSIVELY.
   ELEMENT FINAL_PART-1.39 IS DISTORTING EXCESSIVELY.
   ELEMENT FINAL_PART-1.41 IS DISTORTING EXCESSIVELY.
   ELEMENT FINAL_PART-1.42 IS DISTORTING EXCESSIVELY.
   ELEMENT FINAL_PART-1.45 IS DISTORTING EXCESSIVELY.
   ELEMENT FINAL_PART-1.46 IS DISTORTING EXCESSIVELY.
   ELEMENT FINAL_PART-1.47 IS DISTORTING EXCESSIVELY.
   ELEMENT FINAL_PART-1.48 IS DISTORTING EXCESSIVELY.
   ELEMENT FINAL_PART-1.53 IS DISTORTING EXCESSIVELY.
   ELEMENT FINAL_PART-1.54 IS DISTORTING EXCESSIVELY.
   ELEMENT FINAL_PART-1.55 IS DISTORTING EXCESSIVELY.
   ELEMENT FINAL_PART-1.56 IS DISTORTING EXCESSIVELY.
   ELEMENT FINAL_PART-1.58 IS DISTORTING EXCESSIVELY.
   ELEMENT FINAL_PART-1.59 IS DISTORTING EXCESSIVELY.
   ELEMENT FINAL_PART-1.60 IS DISTORTING EXCESSIVELY.
   ELEMENT FINAL_PART-1.61 IS DISTORTING EXCESSIVELY.
   ELEMENT FINAL_PART-1.63 IS DISTORTING EXCESSIVELY.
   ELEMENT FINAL_PART-1.64 IS DISTORTING EXCESSIVELY.
   ELEMENT FINAL_PART-1.66 IS DISTORTING EXCESSIVELY.
   ELEMENT FINAL_PART-1.68 IS DISTORTING EXCESSIVELY.
   ELEMENT FINAL_PART-1.70 IS DISTORTING EXCESSIVELY.
   ELEMENT FINAL_PART-1.73 IS DISTORTING EXCESSIVELY.
   ELEMENT FINAL_PART-1.75 IS DISTORTING EXCESSIVELY.
   ELEMENT FINAL_PART-1.79 IS DISTORTING EXCESSIVELY.
   ELEMENT FINAL_PART-1.81 IS DISTORTING EXCESSIVELY.
   ELEMENT FINAL_PART-1.82 IS DISTORTING EXCESSIVELY.
   ELEMENT FINAL_PART-1.83 IS DISTORTING EXCESSIVELY.
   ELEMENT FINAL_PART-1.85 IS DISTORTING EXCESSIVELY.
   ELEMENT FINAL_PART-1.87 IS DISTORTING EXCESSIVELY.
   ELEMENT FINAL_PART-1.89 IS DISTORTING EXCESSIVELY.
   ELEMENT FINAL_PART-1.90 IS DISTORTING EXCESSIVELY.
   ELEMENT FINAL_PART-1.92 IS DISTORTING EXCESSIVELY.
   ELEMENT FINAL_PART-1.95 IS DISTORTING EXCESSIVELY.
   ELEMENT FINAL_PART-1.96 IS DISTORTING EXCESSIVELY.
   ELEMENT FINAL_PART-1.100 IS DISTORTING EXCESSIVELY.
   ELEMENT FINAL_PART-1.101 IS DISTORTING EXCESSIVELY.
   ELEMENT FINAL_PART-1.103 IS DISTORTING EXCESSIVELY.
   ELEMENT FINAL_PART-1.104 IS DISTORTING EXCESSIVELY.
   ELEMENT FINAL_PART-1.106 IS DISTORTING EXCESSIVELY.
   ELEMENT FINAL_PART-1.107 IS DISTORTING EXCESSIVELY.
   ELEMENT FINAL_PART-1.108 IS DISTORTING EXCESSIVELY.
   ELEMENT FINAL_PART-1.113 IS DISTORTING EXCESSIVELY.
   ELEMENT FINAL_PART-1.114 IS DISTORTING EXCESSIVELY.
   ELEMENT FINAL_PART-1.115 IS DISTORTING EXCESSIVELY.
   ELEMENT FINAL_PART-1.117 IS DISTORTING EXCESSIVELY.
   ELEMENT FINAL_PART-1.118 IS DISTORTING EXCESSIVELY.
   ELEMENT FINAL_PART-1.119 IS DISTORTING EXCESSIVELY.
   ELEMENT FINAL_PART-1.120 IS DISTORTING EXCESSIVELY.
   ELEMENT FINAL_PART-1.121 IS DISTORTING EXCESSIVELY.
   ELEMENT FINAL_PART-1.123 IS DISTORTING EXCESSIVELY.
   ELEMENT FINAL_PART-1.127 IS DISTORTING EXCESSIVELY.
   ELEMENT FINAL_PART-1.130 IS DISTORTING EXCESSIVELY.
   ELEMENT FINAL_PART-1.133 IS DISTORTING EXCESSIVELY.
   ELEMENT FINAL_PART-1.135 IS DISTORTING EXCESSIVELY.
   ELEMENT FINAL_PART-1.136 IS DISTORTING EXCESSIVELY.
   ELEMENT FINAL_PART-1.138 IS DISTORTING EXCESSIVELY.
   ELEMENT FINAL_PART-1.140 IS DISTORTING EXCESSIVELY.
   ELEMENT FINAL_PART-1.141 IS DISTORTING EXCESSIVELY.
   ELEMENT FINAL_PART-1.144 IS DISTORTING EXCESSIVELY.
   ELEMENT FINAL_PART-1.145 IS DISTORTING EXCESSIVELY.
   ELEMENT FINAL_PART-1.146 IS DISTORTING EXCESSIVELY.
   ELEMENT FINAL_PART-1.147 IS DISTORTING EXCESSIVELY.
   ELEMENT FINAL_PART-1.150 IS DISTORTING EXCESSIVELY.
   ELEMENT FINAL_PART-1.151 IS DISTORTING EXCESSIVELY.
   ELEMENT FINAL_PART-1.152 IS DISTORTING EXCESSIVELY.
   ELEMENT FINAL_PART-1.153 IS DISTORTING EXCESSIVELY.
   ELEMENT FINAL_PART-1.155 IS DISTORTING EXCESSIVELY.
   ELEMENT FINAL_PART-1.157 IS DISTORTING EXCESSIVELY.
   ELEMENT FINAL_PART-1.161 IS DISTORTING EXCESSIVELY.
   ELEMENT FINAL_PART-1.162 IS DISTORTING EXCESSIVELY.
   ELEMENT FINAL_PART-1.168 IS DISTORTING EXCESSIVELY.
   ELEMENT FINAL_PART-1.169 IS DISTORTING EXCESSIVELY.
   ELEMENT FINAL_PART-1.171 IS DISTORTING EXCESSIVELY.
   ELEMENT FINAL_PART-1.173 IS DISTORTING EXCESSIVELY.
   ELEMENT FINAL_PART-1.174 IS DISTORTING EXCESSIVELY.
   ELEMENT FINAL_PART-1.175 IS DISTORTING EXCESSIVELY.
   ELEMENT FINAL_PART-1.176 IS DISTORTING EXCESSIVELY.
   ELEMENT FINAL_PART-1.177 IS DISTORTING EXCESSIVELY.
   ELEMENT FINAL_PART-1.179 IS DISTORTING EXCESSIVELY.
   ELEMENT FINAL_PART-1.180 IS DISTORTING EXCESSIVELY.
   ELEMENT FINAL_PART-1.182 IS DISTORTING EXCESSIVELY.
   ELEMENT FINAL_PART-1.183 IS DISTORTING EXCESSIVELY.
   ELEMENT FINAL_PART-1.186 IS DISTORTING EXCESSIVELY.
   ELEMENT FINAL_PART-1.187 IS DISTORTING EXCESSIVELY.
   ELEMENT FINAL_PART-1.189 IS DISTORTING EXCESSIVELY.
   ELEMENT FINAL_PART-1.190 IS DISTORTING EXCESSIVELY.
   ELEMENT FINAL_PART-1.191 IS DISTORTING EXCESSIVELY.
   ELEMENT FINAL_PART-1.193 IS DISTORTING EXCESSIVELY.
   ELEMENT FINAL_PART-1.194 IS DISTORTING EXCESSIVELY.
   ELEMENT FINAL_PART-1.196 IS DISTORTING EXCESSIVELY.
   ELEMENT FINAL_PART-1.197 IS DISTORTING EXCESSIVELY.
   ELEMENT FINAL_PART-1.198 IS DISTORTING EXCESSIVELY.
   ELEMENT FINAL_PART-1.201 IS DISTORTING EXCESSIVELY.
   ELEMENT FINAL_PART-1.204 IS DISTORTING EXCESSIVELY.
   ELEMENT FINAL_PART-1.205 IS DISTORTING EXCESSIVELY.
   ELEMENT FINAL_PART-1.208 IS DISTORTING EXCESSIVELY.
   ELEMENT FINAL_PART-1.211 IS DISTORTING EXCESSIVELY.
   ELEMENT FINAL_PART-1.212 IS DISTORTING EXCESSIVELY.
   ELEMENT FINAL_PART-1.214 IS DISTORTING EXCESSIVELY.
   ELEMENT FINAL_PART-1.217 IS DISTORTING EXCESSIVELY.
   ELEMENT FINAL_PART-1.219 IS DISTORTING EXCESSIVELY.
   ELEMENT FINAL_PART-1.221 IS DISTORTING EXCESSIVELY.
   ELEMENT FINAL_PART-1.223 IS DISTORTING EXCESSIVELY.
   ELEMENT FINAL_PART-1.224 IS DISTORTING EXCESSIVELY.
   ELEMENT FINAL_PART-1.225 IS DISTORTING EXCESSIVELY.
   ELEMENT FINAL_PART-1.228 IS DISTORTING EXCESSIVELY.
   ELEMENT FINAL_PART-1.229 IS DISTORTING EXCESSIVELY.
   ELEMENT FINAL_PART-1.230 IS DISTORTING EXCESSIVELY.
   ELEMENT FINAL_PART-1.231 IS DISTORTING EXCESSIVELY.
   ELEMENT FINAL_PART-1.233 IS DISTORTING EXCESSIVELY.
   ELEMENT FINAL_PART-1.236 IS DISTORTING EXCESSIVELY.
   ELEMENT FINAL_PART-1.239 IS DISTORTING EXCESSIVELY.
   ELEMENT FINAL_PART-1.241 IS DISTORTING EXCESSIVELY.
   ELEMENT FINAL_PART-1.243 IS DISTORTING EXCESSIVELY.
   ELEMENT FINAL_PART-1.244 IS DISTORTING EXCESSIVELY.
   ELEMENT FINAL_PART-1.245 IS DISTORTING EXCESSIVELY.
   ELEMENT FINAL_PART-1.246 IS DISTORTING EXCESSIVELY.
   ELEMENT FINAL_PART-1.251 IS DISTORTING EXCESSIVELY.
   ELEMENT FINAL_PART-1.252 IS DISTORTING EXCESSIVELY.
   ELEMENT FINAL_PART-1.253 IS DISTORTING EXCESSIVELY.
   ELEMENT FINAL_PART-1.255 IS DISTORTING EXCESSIVELY.
   ELEMENT FINAL_PART-1.256 IS DISTORTING EXCESSIVELY.
   ELEMENT FINAL_PART-1.260 IS DISTORTING EXCESSIVELY.
   ELEMENT FINAL_PART-1.261 IS DISTORTING EXCESSIVELY.
   ELEMENT FINAL_PART-1.262 IS DISTORTING EXCESSIVELY.
   ELEMENT FINAL_PART-1.265 IS DISTORTING EXCESSIVELY.
   ELEMENT FINAL_PART-1.266 IS DISTORTING EXCESSIVELY.
   ELEMENT FINAL_PART-1.268 IS DISTORTING EXCESSIVELY.
   ELEMENT FINAL_PART-1.270 IS DISTORTING EXCESSIVELY.
   ELEMENT FINAL_PART-1.271 IS DISTORTING EXCESSIVELY.
   ELEMENT FINAL_PART-1.272 IS DISTORTING EXCESSIVELY.
   ELEMENT FINAL_PART-1.273 IS DISTORTING EXCESSIVELY.
   ELEMENT FINAL_PART-1.278 IS DISTORTING EXCESSIVELY.
   ELEMENT FINAL_PART-1.281 IS DISTORTING EXCESSIVELY.
   ELEMENT FINAL_PART-1.282 IS DISTORTING EXCESSIVELY.
   ELEMENT FINAL_PART-1.283 IS DISTORTING EXCESSIVELY.
   ELEMENT FINAL_PART-1.285 IS DISTORTING EXCESSIVELY.
   ELEMENT FINAL_PART-1.286 IS DISTORTING EXCESSIVELY.
   ELEMENT FINAL_PART-1.290 IS DISTORTING EXCESSIVELY.
   ELEMENT FINAL_PART-1.291 IS DISTORTING EXCESSIVELY.
   ELEMENT FINAL_PART-1.300 IS DISTORTING EXCESSIVELY.
   ELEMENT FINAL_PART-1.301 IS DISTORTING EXCESSIVELY.
   ELEMENT FINAL_PART-1.302 IS DISTORTING EXCESSIVELY.
   ELEMENT FINAL_PART-1.303 IS DISTORTING EXCESSIVELY.
   ELEMENT FINAL_PART-1.304 IS DISTORTING EXCESSIVELY.
   ELEMENT FINAL_PART-1.306 IS DISTORTING EXCESSIVELY.
   ELEMENT FINAL_PART-1.307 IS DISTORTING EXCESSIVELY.
   ELEMENT FINAL_PART-1.308 IS DISTORTING EXCESSIVELY.
   ELEMENT FINAL_PART-1.312 IS DISTORTING EXCESSIVELY.
   ELEMENT FINAL_PART-1.315 IS DISTORTING EXCESSIVELY.
   ELEMENT FINAL_PART-1.316 IS DISTORTING EXCESSIVELY.
   ELEMENT FINAL_PART-1.318 IS DISTORTING EXCESSIVELY.
   ELEMENT FINAL_PART-1.319 IS DISTORTING EXCESSIVELY.
   ELEMENT FINAL_PART-1.322 IS DISTORTING EXCESSIVELY.
   ELEMENT FINAL_PART-1.323 IS DISTORTING EXCESSIVELY.
   ELEMENT FINAL_PART-1.324 IS DISTORTING EXCESSIVELY.
   ELEMENT FINAL_PART-1.325 IS DISTORTING EXCESSIVELY.
   ELEMENT FINAL_PART-1.327 IS DISTORTING EXCESSIVELY.
   ELEMENT FINAL_PART-1.334 IS DISTORTING EXCESSIVELY.
   ELEMENT FINAL_PART-1.336 IS DISTORTING EXCESSIVELY.
   ELEMENT FINAL_PART-1.338 IS DISTORTING EXCESSIVELY.
   ELEMENT FINAL_PART-1.344 IS DISTORTING EXCESSIVELY.
   ELEMENT FINAL_PART-1.347 IS DISTORTING EXCESSIVELY.
   ELEMENT FINAL_PART-1.350 IS DISTORTING EXCESSIVELY.
   ELEMENT FINAL_PART-1.351 IS DISTORTING EXCESSIVELY.
   ELEMENT FINAL_PART-1.352 IS DISTORTING EXCESSIVELY.
   ELEMENT FINAL_PART-1.353 IS DISTORTING EXCESSIVELY.
   ELEMENT FINAL_PART-1.354 IS DISTORTING EXCESSIVELY.
   ELEMENT FINAL_PART-1.355 IS DISTORTING EXCESSIVELY.
   ELEMENT FINAL_PART-1.356 IS DISTORTING EXCESSIVELY.
   ELEMENT FINAL_PART-1.358 IS DISTORTING EXCESSIVELY.
   ELEMENT FINAL_PART-1.360 IS DISTORTING EXCESSIVELY.
   ELEMENT FINAL_PART-1.362 IS DISTORTING EXCESSIVELY.
   ELEMENT FINAL_PART-1.363 IS DISTORTING EXCESSIVELY.
   ELEMENT FINAL_PART-1.364 IS DISTORTING EXCESSIVELY.
   ELEMENT FINAL_PART-1.365 IS DISTORTING EXCESSIVELY.
   ELEMENT FINAL_PART-1.366 IS DISTORTING EXCESSIVELY.
   ELEMENT FINAL_PART-1.367 IS DISTORTING EXCESSIVELY.
   ELEMENT FINAL_PART-1.368 IS DISTORTING EXCESSIVELY.
   ELEMENT FINAL_PART-1.369 IS DISTORTING EXCESSIVELY.
   ELEMENT FINAL_PART-1.370 IS DISTORTING EXCESSIVELY.
   ELEMENT FINAL_PART-1.371 IS DISTORTING EXCESSIVELY.
   ELEMENT FINAL_PART-1.372 IS DISTORTING EXCESSIVELY.
   ELEMENT FINAL_PART-1.376 IS DISTORTING EXCESSIVELY.
   ELEMENT FINAL_PART-1.377 IS DISTORTING EXCESSIVELY.
   ELEMENT FINAL_PART-1.382 IS DISTORTING EXCESSIVELY.
   ELEMENT FINAL_PART-1.384 IS DISTORTING EXCESSIVELY.
   ELEMENT FINAL_PART-1.385 IS DISTORTING EXCESSIVELY.
   ELEMENT FINAL_PART-1.388 IS DISTORTING EXCESSIVELY.
   ELEMENT FINAL_PART-1.389 IS DISTORTING EXCESSIVELY.
   ELEMENT FINAL_PART-1.391 IS DISTORTING EXCESSIVELY.
   ELEMENT FINAL_PART-1.393 IS DISTORTING EXCESSIVELY.
   ELEMENT FINAL_PART-1.394 IS DISTORTING EXCESSIVELY.
   ELEMENT FINAL_PART-1.397 IS DISTORTING EXCESSIVELY.
   ELEMENT FINAL_PART-1.399 IS DISTORTING EXCESSIVELY.
   ELEMENT FINAL_PART-1.400 IS DISTORTING EXCESSIVELY.
   ELEMENT FINAL_PART-1.401 IS DISTORTING EXCESSIVELY.
   ELEMENT FINAL_PART-1.402 IS DISTORTING EXCESSIVELY.
   ELEMENT FINAL_PART-1.409 IS DISTORTING EXCESSIVELY.
   ELEMENT FINAL_PART-1.410 IS DISTORTING EXCESSIVELY.
   ELEMENT FINAL_PART-1.412 IS DISTORTING EXCESSIVELY.
   ELEMENT FINAL_PART-1.413 IS DISTORTING EXCESSIVELY.
   ELEMENT FINAL_PART-1.415 IS DISTORTING EXCESSIVELY.
   ELEMENT FINAL_PART-1.416 IS DISTORTING EXCESSIVELY.
   ELEMENT FINAL_PART-1.418 IS DISTORTING EXCESSIVELY.
   ELEMENT FINAL_PART-1.419 IS DISTORTING EXCESSIVELY.
   ELEMENT FINAL_PART-1.426 IS DISTORTING EXCESSIVELY.
   ELEMENT FINAL_PART-1.427 IS DISTORTING EXCESSIVELY.
   ELEMENT FINAL_PART-1.430 IS DISTORTING EXCESSIVELY.
   ELEMENT FINAL_PART-1.431 IS DISTORTING EXCESSIVELY.
   ELEMENT FINAL_PART-1.433 IS DISTORTING EXCESSIVELY.
   ELEMENT FINAL_PART-1.435 IS DISTORTING EXCESSIVELY.
   ELEMENT FINAL_PART-1.436 IS DISTORTING EXCESSIVELY.
   ELEMENT FINAL_PART-1.438 IS DISTORTING EXCESSIVELY.
   ELEMENT FINAL_PART-1.442 IS DISTORTING EXCESSIVELY.
   ELEMENT FINAL_PART-1.445 IS DISTORTING EXCESSIVELY.
   ELEMENT FINAL_PART-1.447 IS DISTORTING EXCESSIVELY.
   ELEMENT FINAL_PART-1.449 IS DISTORTING EXCESSIVELY.
   ELEMENT FINAL_PART-1.450 IS DISTORTING EXCESSIVELY.
   ELEMENT FINAL_PART-1.452 IS DISTORTING EXCESSIVELY.
   ELEMENT FINAL_PART-1.453 IS DISTORTING EXCESSIVELY.
   ELEMENT FINAL_PART-1.455 IS DISTORTING EXCESSIVELY.
   ELEMENT FINAL_PART-1.457 IS DISTORTING EXCESSIVELY.
   ELEMENT FINAL_PART-1.459 IS DISTORTING EXCESSIVELY.
   ELEMENT FINAL_PART-1.461 IS DISTORTING EXCESSIVELY.
   ELEMENT FINAL_PART-1.463 IS DISTORTING EXCESSIVELY.
   ELEMENT FINAL_PART-1.464 IS DISTORTING EXCESSIVELY.
   ELEMENT FINAL_PART-1.465 IS DISTORTING EXCESSIVELY.
   ELEMENT FINAL_PART-1.467 IS DISTORTING EXCESSIVELY.
   ELEMENT FINAL_PART-1.471 IS DISTORTING EXCESSIVELY.
   ELEMENT FINAL_PART-1.476 IS DISTORTING EXCESSIVELY.
   ELEMENT FINAL_PART-1.477 IS DISTORTING EXCESSIVELY.
   ELEMENT FINAL_PART-1.478 IS DISTORTING EXCESSIVELY.
   ELEMENT FINAL_PART-1.485 IS DISTORTING EXCESSIVELY.
   ELEMENT FINAL_PART-1.489 IS DISTORTING EXCESSIVELY.
   ELEMENT FINAL_PART-1.491 IS DISTORTING EXCESSIVELY.
   ELEMENT FINAL_PART-1.494 IS DISTORTING EXCESSIVELY.
   ELEMENT FINAL_PART-1.495 IS DISTORTING EXCESSIVELY.
   ELEMENT FINAL_PART-1.496 IS DISTORTING EXCESSIVELY.
   ELEMENT FINAL_PART-1.498 IS DISTORTING EXCESSIVELY.
   ELEMENT FINAL_PART-1.499 IS DISTORTING EXCESSIVELY.
   ELEMENT FINAL_PART-1.501 IS DISTORTING EXCESSIVELY.
   ELEMENT FINAL_PART-1.502 IS DISTORTING EXCESSIVELY.
   ELEMENT FINAL_PART-1.504 IS DISTORTING EXCESSIVELY.
   ELEMENT FINAL_PART-1.505 IS DISTORTING EXCESSIVELY.
   ELEMENT FINAL_PART-1.506 IS DISTORTING EXCESSIVELY.
   ELEMENT FINAL_PART-1.510 IS DISTORTING EXCESSIVELY.
   ELEMENT FINAL_PART-1.511 IS DISTORTING EXCESSIVELY.
   ELEMENT FINAL_PART-1.512 IS DISTORTING EXCESSIVELY.
   ELEMENT FINAL_PART-1.513 IS DISTORTING EXCESSIVELY.
   ELEMENT FINAL_PART-1.515 IS DISTORTING EXCESSIVELY.
   ELEMENT FINAL_PART-1.516 IS DISTORTING EXCESSIVELY.
   ELEMENT FINAL_PART-1.518 IS DISTORTING EXCESSIVELY.
   ELEMENT FINAL_PART-1.519 IS DISTORTING EXCESSIVELY.
   ELEMENT FINAL_PART-1.521 IS DISTORTING EXCESSIVELY.
   ELEMENT FINAL_PART-1.522 IS DISTORTING EXCESSIVELY.
   ELEMENT FINAL_PART-1.524 IS DISTORTING EXCESSIVELY.
   ELEMENT FINAL_PART-1.528 IS DISTORTING EXCESSIVELY.
   ELEMENT FINAL_PART-1.530 IS DISTORTING EXCESSIVELY.
   ELEMENT FINAL_PART-1.531 IS DISTORTING EXCESSIVELY.
   ELEMENT FINAL_PART-1.532 IS DISTORTING EXCESSIVELY.
   ELEMENT FINAL_PART-1.538 IS DISTORTING EXCESSIVELY.
   ELEMENT FINAL_PART-1.542 IS DISTORTING EXCESSIVELY.
   ELEMENT FINAL_PART-1.543 IS DISTORTING EXCESSIVELY.
   ELEMENT FINAL_PART-1.544 IS DISTORTING EXCESSIVELY.
   ELEMENT FINAL_PART-1.545 IS DISTORTING EXCESSIVELY.
   ELEMENT FINAL_PART-1.546 IS DISTORTING EXCESSIVELY.
   ELEMENT FINAL_PART-1.549 IS DISTORTING EXCESSIVELY.
   ELEMENT FINAL_PART-1.554 IS DISTORTING EXCESSIVELY.
   ELEMENT FINAL_PART-1.556 IS DISTORTING EXCESSIVELY.
   ELEMENT FINAL_PART-1.559 IS DISTORTING EXCESSIVELY.
   ELEMENT FINAL_PART-1.560 IS DISTORTING EXCESSIVELY.
   ELEMENT FINAL_PART-1.561 IS DISTORTING EXCESSIVELY.
   ELEMENT FINAL_PART-1.562 IS DISTORTING EXCESSIVELY.
   ELEMENT FINAL_PART-1.563 IS DISTORTING EXCESSIVELY.
   ELEMENT FINAL_PART-1.567 IS DISTORTING EXCESSIVELY.
   ELEMENT FINAL_PART-1.568 IS DISTORTING EXCESSIVELY.
   ELEMENT FINAL_PART-1.572 IS DISTORTING EXCESSIVELY.
   ELEMENT FINAL_PART-1.574 IS DISTORTING EXCESSIVELY.
   ELEMENT FINAL_PART-1.577 IS DISTORTING EXCESSIVELY.
   ELEMENT FINAL_PART-1.578 IS DISTORTING EXCESSIVELY.
   ELEMENT FINAL_PART-1.581 IS DISTORTING EXCESSIVELY.
   ELEMENT FINAL_PART-1.582 IS DISTORTING EXCESSIVELY.
   ELEMENT FINAL_PART-1.584 IS DISTORTING EXCESSIVELY.
   ELEMENT FINAL_PART-1.585 IS DISTORTING EXCESSIVELY.
   ELEMENT FINAL_PART-1.588 IS DISTORTING EXCESSIVELY.
   ELEMENT FINAL_PART-1.590 IS DISTORTING EXCESSIVELY.
   ELEMENT FINAL_PART-1.591 IS DISTORTING EXCESSIVELY.
   ELEMENT FINAL_PART-1.592 IS DISTORTING EXCESSIVELY.
   ELEMENT FINAL_PART-1.597 IS DISTORTING EXCESSIVELY.
   ELEMENT FINAL_PART-1.600 IS DISTORTING EXCESSIVELY.
   ELEMENT FINAL_PART-1.601 IS DISTORTING EXCESSIVELY.
   ELEMENT FINAL_PART-1.603 IS DISTORTING EXCESSIVELY.
   ELEMENT FINAL_PART-1.605 IS DISTORTING EXCESSIVELY.
   ELEMENT FINAL_PART-1.608 IS DISTORTING EXCESSIVELY.
   ELEMENT FINAL_PART-1.610 IS DISTORTING EXCESSIVELY.
   ELEMENT FINAL_PART-1.611 IS DISTORTING EXCESSIVELY.
   ELEMENT FINAL_PART-1.612 IS DISTORTING EXCESSIVELY.
   ELEMENT FINAL_PART-1.613 IS DISTORTING EXCESSIVELY.
   ELEMENT FINAL_PART-1.614 IS DISTORTING EXCESSIVELY.
   ELEMENT FINAL_PART-1.615 IS DISTORTING EXCESSIVELY.
   ELEMENT FINAL_PART-1.618 IS DISTORTING EXCESSIVELY.
   ELEMENT FINAL_PART-1.619 IS DISTORTING EXCESSIVELY.
   ELEMENT FINAL_PART-1.620 IS DISTORTING EXCESSIVELY.
   ELEMENT FINAL_PART-1.624 IS DISTORTING EXCESSIVELY.
   ELEMENT FINAL_PART-1.625 IS DISTORTING EXCESSIVELY.
   ELEMENT FINAL_PART-1.632 IS DISTORTING EXCESSIVELY.
   ELEMENT FINAL_PART-1.633 IS DISTORTING EXCESSIVELY.
   ELEMENT FINAL_PART-1.635 IS DISTORTING EXCESSIVELY.
   ELEMENT FINAL_PART-1.639 IS DISTORTING EXCESSIVELY.
   ELEMENT FINAL_PART-1.641 IS DISTORTING EXCESSIVELY.
   ELEMENT FINAL_PART-1.642 IS DISTORTING EXCESSIVELY.
   ELEMENT FINAL_PART-1.643 IS DISTORTING EXCESSIVELY.
   ELEMENT FINAL_PART-1.644 IS DISTORTING EXCESSIVELY.
   ELEMENT FINAL_PART-1.645 IS DISTORTING EXCESSIVELY.
   ELEMENT FINAL_PART-1.647 IS DISTORTING EXCESSIVELY.
   ELEMENT FINAL_PART-1.650 IS DISTORTING EXCESSIVELY.
   ELEMENT FINAL_PART-1.651 IS DISTORTING EXCESSIVELY.
   ELEMENT FINAL_PART-1.654 IS DISTORTING EXCESSIVELY.
   ELEMENT FINAL_PART-1.655 IS DISTORTING EXCESSIVELY.
   ELEMENT FINAL_PART-1.657 IS DISTORTING EXCESSIVELY.
   ELEMENT FINAL_PART-1.660 IS DISTORTING EXCESSIVELY.
   ELEMENT FINAL_PART-1.661 IS DISTORTING EXCESSIVELY.
   ELEMENT FINAL_PART-1.662 IS DISTORTING EXCESSIVELY.
   ELEMENT FINAL_PART-1.663 IS DISTORTING EXCESSIVELY.
   ELEMENT FINAL_PART-1.667 IS DISTORTING EXCESSIVELY.
   ELEMENT FINAL_PART-1.669 IS DISTORTING EXCESSIVELY.
   ELEMENT FINAL_PART-1.673 IS DISTORTING EXCESSIVELY.
   ELEMENT FINAL_PART-1.675 IS DISTORTING EXCESSIVELY.
   ELEMENT FINAL_PART-1.677 IS DISTORTING EXCESSIVELY.
   ELEMENT FINAL_PART-1.679 IS DISTORTING EXCESSIVELY.
   ELEMENT FINAL_PART-1.680 IS DISTORTING EXCESSIVELY.
   ELEMENT FINAL_PART-1.681 IS DISTORTING EXCESSIVELY.
   ELEMENT FINAL_PART-1.683 IS DISTORTING EXCESSIVELY.
   ELEMENT FINAL_PART-1.684 IS DISTORTING EXCESSIVELY.
   ELEMENT FINAL_PART-1.686 IS DISTORTING EXCESSIVELY.
   ELEMENT FINAL_PART-1.687 IS DISTORTING EXCESSIVELY.
   ELEMENT FINAL_PART-1.690 IS DISTORTING EXCESSIVELY.
   ELEMENT FINAL_PART-1.691 IS DISTORTING EXCESSIVELY.
   ELEMENT FINAL_PART-1.693 IS DISTORTING EXCESSIVELY.
   ELEMENT FINAL_PART-1.694 IS DISTORTING EXCESSIVELY.
   ELEMENT FINAL_PART-1.696 IS DISTORTING EXCESSIVELY.
   ELEMENT FINAL_PART-1.699 IS DISTORTING EXCESSIVELY.
   ELEMENT FINAL_PART-1.702 IS DISTORTING EXCESSIVELY.
   ELEMENT FINAL_PART-1.703 IS DISTORTING EXCESSIVELY.
   ELEMENT FINAL_PART-1.709 IS DISTORTING EXCESSIVELY.
   ELEMENT FINAL_PART-1.712 IS DISTORTING EXCESSIVELY.
   ELEMENT FINAL_PART-1.714 IS DISTORTING EXCESSIVELY.
   ELEMENT FINAL_PART-1.718 IS DISTORTING EXCESSIVELY.
   ELEMENT FINAL_PART-1.719 IS DISTORTING EXCESSIVELY.
   ELEMENT FINAL_PART-1.721 IS DISTORTING EXCESSIVELY.
   ELEMENT FINAL_PART-1.723 IS DISTORTING EXCESSIVELY.
   ELEMENT FINAL_PART-1.726 IS DISTORTING EXCESSIVELY.
   ELEMENT FINAL_PART-1.727 IS DISTORTING EXCESSIVELY.
   ELEMENT FINAL_PART-1.729 IS DISTORTING EXCESSIVELY.
   ELEMENT FINAL_PART-1.731 IS DISTORTING EXCESSIVELY.
   ELEMENT FINAL_PART-1.732 IS DISTORTING EXCESSIVELY.
   ELEMENT FINAL_PART-1.733 IS DISTORTING EXCESSIVELY.
   ELEMENT FINAL_PART-1.736 IS DISTORTING EXCESSIVELY.
   ELEMENT FINAL_PART-1.738 IS DISTORTING EXCESSIVELY.
   ELEMENT FINAL_PART-1.740 IS DISTORTING EXCESSIVELY.
   ELEMENT FINAL_PART-1.743 IS DISTORTING EXCESSIVELY.
   ELEMENT FINAL_PART-1.745 IS DISTORTING EXCESSIVELY.
   ELEMENT FINAL_PART-1.746 IS DISTORTING EXCESSIVELY.
   ELEMENT FINAL_PART-1.749 IS DISTORTING EXCESSIVELY.
   ELEMENT FINAL_PART-1.751 IS DISTORTING EXCESSIVELY.
   ELEMENT FINAL_PART-1.752 IS DISTORTING EXCESSIVELY.
   ELEMENT FINAL_PART-1.756 IS DISTORTING EXCESSIVELY.
   ELEMENT FINAL_PART-1.759 IS DISTORTING EXCESSIVELY.
   ELEMENT FINAL_PART-1.761 IS DISTORTING EXCESSIVELY.
   ELEMENT FINAL_PART-1.762 IS DISTORTING EXCESSIVELY.
   ELEMENT FINAL_PART-1.764 IS DISTORTING EXCESSIVELY.
   ELEMENT FINAL_PART-1.766 IS DISTORTING EXCESSIVELY.
   ELEMENT FINAL_PART-1.771 IS DISTORTING EXCESSIVELY.
   ELEMENT FINAL_PART-1.772 IS DISTORTING EXCESSIVELY.
   ELEMENT FINAL_PART-1.775 IS DISTORTING EXCESSIVELY.
   ELEMENT FINAL_PART-1.778 IS DISTORTING EXCESSIVELY.
   ELEMENT FINAL_PART-1.782 IS DISTORTING EXCESSIVELY.
   ELEMENT FINAL_PART-1.785 IS DISTORTING EXCESSIVELY.
   ELEMENT FINAL_PART-1.787 IS DISTORTING EXCESSIVELY.
   ELEMENT FINAL_PART-1.789 IS DISTORTING EXCESSIVELY.
   ELEMENT FINAL_PART-1.794 IS DISTORTING EXCESSIVELY.
   ELEMENT FINAL_PART-1.795 IS DISTORTING EXCESSIVELY.
   ELEMENT FINAL_PART-1.796 IS DISTORTING EXCESSIVELY.
   ELEMENT FINAL_PART-1.799 IS DISTORTING EXCESSIVELY.
   ELEMENT FINAL_PART-1.800 IS DISTORTING EXCESSIVELY.
   ELEMENT FINAL_PART-1.803 IS DISTORTING EXCESSIVELY.
   ELEMENT FINAL_PART-1.804 IS DISTORTING EXCESSIVELY.
   ELEMENT FINAL_PART-1.805 IS DISTORTING EXCESSIVELY.
   ELEMENT FINAL_PART-1.807 IS DISTORTING EXCESSIVELY.
   ELEMENT FINAL_PART-1.809 IS DISTORTING EXCESSIVELY.
   ELEMENT FINAL_PART-1.810 IS DISTORTING EXCESSIVELY.
   ELEMENT FINAL_PART-1.813 IS DISTORTING EXCESSIVELY.
   ELEMENT FINAL_PART-1.814 IS DISTORTING EXCESSIVELY.
   ELEMENT FINAL_PART-1.815 IS DISTORTING EXCESSIVELY.
   ELEMENT FINAL_PART-1.819 IS DISTORTING EXCESSIVELY.
   ELEMENT FINAL_PART-1.820 IS DISTORTING EXCESSIVELY.
   ELEMENT FINAL_PART-1.821 IS DISTORTING EXCESSIVELY.
   ELEMENT FINAL_PART-1.823 IS DISTORTING EXCESSIVELY.
   ELEMENT FINAL_PART-1.829 IS DISTORTING EXCESSIVELY.
   ELEMENT FINAL_PART-1.832 IS DISTORTING EXCESSIVELY.
   ELEMENT FINAL_PART-1.835 IS DISTORTING EXCESSIVELY.
   ELEMENT FINAL_PART-1.837 IS DISTORTING EXCESSIVELY.
   ELEMENT FINAL_PART-1.839 IS DISTORTING EXCESSIVELY.
   ELEMENT FINAL_PART-1.841 IS DISTORTING EXCESSIVELY.
   ELEMENT FINAL_PART-1.842 IS DISTORTING EXCESSIVELY.
   ELEMENT FINAL_PART-1.843 IS DISTORTING EXCESSIVELY.
   ELEMENT FINAL_PART-1.844 IS DISTORTING EXCESSIVELY.
   ELEMENT FINAL_PART-1.845 IS DISTORTING EXCESSIVELY.
   ELEMENT FINAL_PART-1.846 IS DISTORTING EXCESSIVELY.
   ELEMENT FINAL_PART-1.848 IS DISTORTING EXCESSIVELY.
   ELEMENT FINAL_PART-1.849 IS DISTORTING EXCESSIVELY.
   ELEMENT FINAL_PART-1.854 IS DISTORTING EXCESSIVELY.
   ELEMENT FINAL_PART-1.857 IS DISTORTING EXCESSIVELY.
   ELEMENT FINAL_PART-1.860 IS DISTORTING EXCESSIVELY.
   ELEMENT FINAL_PART-1.861 IS DISTORTING EXCESSIVELY.
   ELEMENT FINAL_PART-1.862 IS DISTORTING EXCESSIVELY.
   ELEMENT FINAL_PART-1.863 IS DISTORTING EXCESSIVELY.
   ELEMENT FINAL_PART-1.865 IS DISTORTING EXCESSIVELY.
   ELEMENT FINAL_PART-1.867 IS DISTORTING EXCESSIVELY.
   ELEMENT FINAL_PART-1.868 IS DISTORTING EXCESSIVELY.
   ELEMENT FINAL_PART-1.870 IS DISTORTING EXCESSIVELY.
   ELEMENT FINAL_PART-1.871 IS DISTORTING EXCESSIVELY.
   ELEMENT FINAL_PART-1.875 IS DISTORTING EXCESSIVELY.
   ELEMENT FINAL_PART-1.879 IS DISTORTING EXCESSIVELY.
   ELEMENT FINAL_PART-1.880 IS DISTORTING EXCESSIVELY.
   ELEMENT FINAL_PART-1.886 IS DISTORTING EXCESSIVELY.
   ELEMENT FINAL_PART-1.887 IS DISTORTING EXCESSIVELY.
   ELEMENT FINAL_PART-1.889 IS DISTORTING EXCESSIVELY.
   ELEMENT FINAL_PART-1.891 IS DISTORTING EXCESSIVELY.
   ELEMENT FINAL_PART-1.893 IS DISTORTING EXCESSIVELY.
   ELEMENT FINAL_PART-1.895 IS DISTORTING EXCESSIVELY.
   ELEMENT FINAL_PART-1.898 IS DISTORTING EXCESSIVELY.
   ELEMENT FINAL_PART-1.899 IS DISTORTING EXCESSIVELY.
   ELEMENT FINAL_PART-1.902 IS DISTORTING EXCESSIVELY.
   ELEMENT FINAL_PART-1.903 IS DISTORTING EXCESSIVELY.
   ELEMENT FINAL_PART-1.904 IS DISTORTING EXCESSIVELY.
   ELEMENT FINAL_PART-1.906 IS DISTORTING EXCESSIVELY.
   ELEMENT FINAL_PART-1.907 IS DISTORTING EXCESSIVELY.
   ELEMENT FINAL_PART-1.908 IS DISTORTING EXCESSIVELY.
   ELEMENT FINAL_PART-1.910 IS DISTORTING EXCESSIVELY.
   ELEMENT FINAL_PART-1.914 IS DISTORTING EXCESSIVELY.
   ELEMENT FINAL_PART-1.916 IS DISTORTING EXCESSIVELY.
   ELEMENT FINAL_PART-1.917 IS DISTORTING EXCESSIVELY.
   ELEMENT FINAL_PART-1.918 IS DISTORTING EXCESSIVELY.
   ELEMENT FINAL_PART-1.919 IS DISTORTING EXCESSIVELY.
   ELEMENT FINAL_PART-1.920 IS DISTORTING EXCESSIVELY.
   ELEMENT FINAL_PART-1.922 IS DISTORTING EXCESSIVELY.
   ELEMENT FINAL_PART-1.927 IS DISTORTING EXCESSIVELY.
   ELEMENT FINAL_PART-1.930 IS DISTORTING EXCESSIVELY.
   ELEMENT FINAL_PART-1.931 IS DISTORTING EXCESSIVELY.
   ELEMENT FINAL_PART-1.933 IS DISTORTING EXCESSIVELY.
   ELEMENT FINAL_PART-1.934 IS DISTORTING EXCESSIVELY.
   ELEMENT FINAL_PART-1.935 IS DISTORTING EXCESSIVELY.
   ELEMENT FINAL_PART-1.938 IS DISTORTING EXCESSIVELY.
   ELEMENT FINAL_PART-1.939 IS DISTORTING EXCESSIVELY.
   ELEMENT FINAL_PART-1.941 IS DISTORTING EXCESSIVELY.
   ELEMENT FINAL_PART-1.943 IS DISTORTING EXCESSIVELY.
   ELEMENT FINAL_PART-1.945 IS DISTORTING EXCESSIVELY.
   ELEMENT FINAL_PART-1.947 IS DISTORTING EXCESSIVELY.
   ELEMENT FINAL_PART-1.948 IS DISTORTING EXCESSIVELY.
   ELEMENT FINAL_PART-1.951 IS DISTORTING EXCESSIVELY.
   ELEMENT FINAL_PART-1.953 IS DISTORTING EXCESSIVELY.
   ELEMENT FINAL_PART-1.955 IS DISTORTING EXCESSIVELY.
   ELEMENT FINAL_PART-1.958 IS DISTORTING EXCESSIVELY.
   ELEMENT FINAL_PART-1.959 IS DISTORTING EXCESSIVELY.
   ELEMENT FINAL_PART-1.960 IS DISTORTING EXCESSIVELY.
   ELEMENT FINAL_PART-1.963 IS DISTORTING EXCESSIVELY.
   ELEMENT FINAL_PART-1.964 IS DISTORTING EXCESSIVELY.
   ELEMENT FINAL_PART-1.965 IS DISTORTING EXCESSIVELY.
   ELEMENT FINAL_PART-1.966 IS DISTORTING EXCESSIVELY.
   ELEMENT FINAL_PART-1.967 IS DISTORTING EXCESSIVELY.
   ELEMENT FINAL_PART-1.968 IS DISTORTING EXCESSIVELY.
   ELEMENT FINAL_PART-1.969 IS DISTORTING EXCESSIVELY.
   ELEMENT FINAL_PART-1.971 IS DISTORTING EXCESSIVELY.
   ELEMENT FINAL_PART-1.973 IS DISTORTING EXCESSIVELY.
   ELEMENT FINAL_PART-1.974 IS DISTORTING EXCESSIVELY.
   ELEMENT FINAL_PART-1.975 IS DISTORTING EXCESSIVELY.
   ELEMENT FINAL_PART-1.976 IS DISTORTING EXCESSIVELY.
   ELEMENT FINAL_PART-1.977 IS DISTORTING EXCESSIVELY.
   ELEMENT FINAL_PART-1.979 IS DISTORTING EXCESSIVELY.
   ELEMENT FINAL_PART-1.982 IS DISTORTING EXCESSIVELY.
   ELEMENT FINAL_PART-1.983 IS DISTORTING EXCESSIVELY.
   ELEMENT FINAL_PART-1.985 IS DISTORTING EXCESSIVELY.
   ELEMENT FINAL_PART-1.989 IS DISTORTING EXCESSIVELY.
   ELEMENT FINAL_PART-1.990 IS DISTORTING EXCESSIVELY.
   ELEMENT FINAL_PART-1.993 IS DISTORTING EXCESSIVELY.
   ELEMENT FINAL_PART-1.995 IS DISTORTING EXCESSIVELY.
   ELEMENT FINAL_PART-1.996 IS DISTORTING EXCESSIVELY.
   ELEMENT FINAL_PART-1.997 IS DISTORTING EXCESSIVELY.
   ELEMENT FINAL_PART-1.1000 IS DISTORTING EXCESSIVELY.
   ELEMENT FINAL_PART-1.1001 IS DISTORTING EXCESSIVELY.
   ELEMENT FINAL_PART-1.1007 IS DISTORTING EXCESSIVELY.
   ELEMENT FINAL_PART-1.1011 IS DISTORTING EXCESSIVELY.
   ELEMENT FINAL_PART-1.1014 IS DISTORTING EXCESSIVELY.
   ELEMENT FINAL_PART-1.1015 IS DISTORTING EXCESSIVELY.
   ELEMENT FINAL_PART-1.1018 IS DISTORTING EXCESSIVELY.
   ELEMENT FINAL_PART-1.1022 IS DISTORTING EXCESSIVELY.
   ELEMENT FINAL_PART-1.1023 IS DISTORTING EXCESSIVELY.
   ELEMENT FINAL_PART-1.1026 IS DISTORTING EXCESSIVELY.
   ELEMENT FINAL_PART-1.1027 IS DISTORTING EXCESSIVELY.
   ELEMENT FINAL_PART-1.1029 IS DISTORTING EXCESSIVELY.
   ELEMENT FINAL_PART-1.1031 IS DISTORTING EXCESSIVELY.
   ELEMENT FINAL_PART-1.1032 IS DISTORTING EXCESSIVELY.
   ELEMENT FINAL_PART-1.1033 IS DISTORTING EXCESSIVELY.
   ELEMENT FINAL_PART-1.1035 IS DISTORTING EXCESSIVELY.
   ELEMENT FINAL_PART-1.1038 IS DISTORTING EXCESSIVELY.
   ELEMENT FINAL_PART-1.1041 IS DISTORTING EXCESSIVELY.
   ELEMENT FINAL_PART-1.1042 IS DISTORTING EXCESSIVELY.
   ELEMENT FINAL_PART-1.1043 IS DISTORTING EXCESSIVELY.
   ELEMENT FINAL_PART-1.1047 IS DISTORTING EXCESSIVELY.
   ELEMENT FINAL_PART-1.1048 IS DISTORTING EXCESSIVELY.
   ELEMENT FINAL_PART-1.1050 IS DISTORTING EXCESSIVELY.
   ELEMENT FINAL_PART-1.1051 IS DISTORTING EXCESSIVELY.
   ELEMENT FINAL_PART-1.1054 IS DISTORTING EXCESSIVELY.
   ELEMENT FINAL_PART-1.1055 IS DISTORTING EXCESSIVELY.
   ELEMENT FINAL_PART-1.1056 IS DISTORTING EXCESSIVELY.
   ELEMENT FINAL_PART-1.1057 IS DISTORTING EXCESSIVELY.
   ELEMENT FINAL_PART-1.1060 IS DISTORTING EXCESSIVELY.
   ELEMENT FINAL_PART-1.1065 IS DISTORTING EXCESSIVELY.
   ELEMENT FINAL_PART-1.1066 IS DISTORTING EXCESSIVELY.
   ELEMENT FINAL_PART-1.1068 IS DISTORTING EXCESSIVELY.
   ELEMENT FINAL_PART-1.1069 IS DISTORTING EXCESSIVELY.
   ELEMENT FINAL_PART-1.1071 IS DISTORTING EXCESSIVELY.
   ELEMENT FINAL_PART-1.1072 IS DISTORTING EXCESSIVELY.
   ELEMENT FINAL_PART-1.1073 IS DISTORTING EXCESSIVELY.
   ELEMENT FINAL_PART-1.1074 IS DISTORTING EXCESSIVELY.
   ELEMENT FINAL_PART-1.1076 IS DISTORTING EXCESSIVELY.
   ELEMENT FINAL_PART-1.1077 IS DISTORTING EXCESSIVELY.
   ELEMENT FINAL_PART-1.1078 IS DISTORTING EXCESSIVELY.
   ELEMENT FINAL_PART-1.1082 IS DISTORTING EXCESSIVELY.
   ELEMENT FINAL_PART-1.1083 IS DISTORTING EXCESSIVELY.
   ELEMENT FINAL_PART-1.1084 IS DISTORTING EXCESSIVELY.
   ELEMENT FINAL_PART-1.1086 IS DISTORTING EXCESSIVELY.
   ELEMENT FINAL_PART-1.1091 IS DISTORTING EXCESSIVELY.
   ELEMENT FINAL_PART-1.1092 IS DISTORTING EXCESSIVELY.
   ELEMENT FINAL_PART-1.1093 IS DISTORTING EXCESSIVELY.
   ELEMENT FINAL_PART-1.1095 IS DISTORTING EXCESSIVELY.
   ELEMENT FINAL_PART-1.1096 IS DISTORTING EXCESSIVELY.
   ELEMENT FINAL_PART-1.1097 IS DISTORTING EXCESSIVELY.
   ELEMENT FINAL_PART-1.1100 IS DISTORTING EXCESSIVELY.
   ELEMENT FINAL_PART-1.1101 IS DISTORTING EXCESSIVELY.
   ELEMENT FINAL_PART-1.1103 IS DISTORTING EXCESSIVELY.
   ELEMENT FINAL_PART-1.1104 IS DISTORTING EXCESSIVELY.
   ELEMENT FINAL_PART-1.1107 IS DISTORTING EXCESSIVELY.
   ELEMENT FINAL_PART-1.1112 IS DISTORTING EXCESSIVELY.
   ELEMENT FINAL_PART-1.1116 IS DISTORTING EXCESSIVELY.
   ELEMENT FINAL_PART-1.1117 IS DISTORTING EXCESSIVELY.
   ELEMENT FINAL_PART-1.1118 IS DISTORTING EXCESSIVELY.
   ELEMENT FINAL_PART-1.1120 IS DISTORTING EXCESSIVELY.
   ELEMENT FINAL_PART-1.1121 IS DISTORTING EXCESSIVELY.
   ELEMENT FINAL_PART-1.1122 IS DISTORTING EXCESSIVELY.
   ELEMENT FINAL_PART-1.1126 IS DISTORTING EXCESSIVELY.
   ELEMENT FINAL_PART-1.1127 IS DISTORTING EXCESSIVELY.
   ELEMENT FINAL_PART-1.1128 IS DISTORTING EXCESSIVELY.
   ELEMENT FINAL_PART-1.1129 IS DISTORTING EXCESSIVELY.
   ELEMENT FINAL_PART-1.1134 IS DISTORTING EXCESSIVELY.
   ELEMENT FINAL_PART-1.1135 IS DISTORTING EXCESSIVELY.
   ELEMENT FINAL_PART-1.1137 IS DISTORTING EXCESSIVELY.
   ELEMENT FINAL_PART-1.1138 IS DISTORTING EXCESSIVELY.
   ELEMENT FINAL_PART-1.1139 IS DISTORTING EXCESSIVELY.
   ELEMENT FINAL_PART-1.1143 IS DISTORTING EXCESSIVELY.
   ELEMENT FINAL_PART-1.1144 IS DISTORTING EXCESSIVELY.
   ELEMENT FINAL_PART-1.1146 IS DISTORTING EXCESSIVELY.
   ELEMENT FINAL_PART-1.1148 IS DISTORTING EXCESSIVELY.
   ELEMENT FINAL_PART-1.1151 IS DISTORTING EXCESSIVELY.
   ELEMENT FINAL_PART-1.1153 IS DISTORTING EXCESSIVELY.
   ELEMENT FINAL_PART-1.1155 IS DISTORTING EXCESSIVELY.
   ELEMENT FINAL_PART-1.1157 IS DISTORTING EXCESSIVELY.
   ELEMENT FINAL_PART-1.1161 IS DISTORTING EXCESSIVELY.
   ELEMENT FINAL_PART-1.1163 IS DISTORTING EXCESSIVELY.
   ELEMENT FINAL_PART-1.1165 IS DISTORTING EXCESSIVELY.
   ELEMENT FINAL_PART-1.1169 IS DISTORTING EXCESSIVELY.
   ELEMENT FINAL_PART-1.1170 IS DISTORTING EXCESSIVELY.
   ELEMENT FINAL_PART-1.1172 IS DISTORTING EXCESSIVELY.
   ELEMENT FINAL_PART-1.1173 IS DISTORTING EXCESSIVELY.
   ELEMENT FINAL_PART-1.1174 IS DISTORTING EXCESSIVELY.
   ELEMENT FINAL_PART-1.1176 IS DISTORTING EXCESSIVELY.
   ELEMENT FINAL_PART-1.1179 IS DISTORTING EXCESSIVELY.
   ELEMENT FINAL_PART-1.1182 IS DISTORTING EXCESSIVELY.
   ELEMENT FINAL_PART-1.1183 IS DISTORTING EXCESSIVELY.
   ELEMENT FINAL_PART-1.1187 IS DISTORTING EXCESSIVELY.
   ELEMENT FINAL_PART-1.1190 IS DISTORTING EXCESSIVELY.
   ELEMENT FINAL_PART-1.1193 IS DISTORTING EXCESSIVELY.
   ELEMENT FINAL_PART-1.1194 IS DISTORTING EXCESSIVELY.
   ELEMENT FINAL_PART-1.1196 IS DISTORTING EXCESSIVELY.
   ELEMENT FINAL_PART-1.1197 IS DISTORTING EXCESSIVELY.
   ELEMENT FINAL_PART-1.1200 IS DISTORTING EXCESSIVELY.
   ELEMENT FINAL_PART-1.1201 IS DISTORTING EXCESSIVELY.
   ELEMENT FINAL_PART-1.1207 IS DISTORTING EXCESSIVELY.
   ELEMENT FINAL_PART-1.1208 IS DISTORTING EXCESSIVELY.
   ELEMENT FINAL_PART-1.1211 IS DISTORTING EXCESSIVELY.
   ELEMENT FINAL_PART-1.1212 IS DISTORTING EXCESSIVELY.
   ELEMENT FINAL_PART-1.1213 IS DISTORTING EXCESSIVELY.
   ELEMENT FINAL_PART-1.1214 IS DISTORTING EXCESSIVELY.
   ELEMENT FINAL_PART-1.1215 IS DISTORTING EXCESSIVELY.
   ELEMENT FINAL_PART-1.1216 IS DISTORTING EXCESSIVELY.
   ELEMENT FINAL_PART-1.1218 IS DISTORTING EXCESSIVELY.
   ELEMENT FINAL_PART-1.1221 IS DISTORTING EXCESSIVELY.
   ELEMENT FINAL_PART-1.1222 IS DISTORTING EXCESSIVELY.
   ELEMENT FINAL_PART-1.1223 IS DISTORTING EXCESSIVELY.
   ELEMENT FINAL_PART-1.1224 IS DISTORTING EXCESSIVELY.
   ELEMENT FINAL_PART-1.1225 IS DISTORTING EXCESSIVELY.
   ELEMENT FINAL_PART-1.1226 IS DISTORTING EXCESSIVELY.
   ELEMENT FINAL_PART-1.1229 IS DISTORTING EXCESSIVELY.
   ELEMENT FINAL_PART-1.1235 IS DISTORTING EXCESSIVELY.
   ELEMENT FINAL_PART-1.1237 IS DISTORTING EXCESSIVELY.
   ELEMENT FINAL_PART-1.1238 IS DISTORTING EXCESSIVELY.
   ELEMENT FINAL_PART-1.1239 IS DISTORTING EXCESSIVELY.
   ELEMENT FINAL_PART-1.1240 IS DISTORTING EXCESSIVELY.
   ELEMENT FINAL_PART-1.1241 IS DISTORTING EXCESSIVELY.
   ELEMENT FINAL_PART-1.1245 IS DISTORTING EXCESSIVELY.
   ELEMENT FINAL_PART-1.1246 IS DISTORTING EXCESSIVELY.
   ELEMENT FINAL_PART-1.1248 IS DISTORTING EXCESSIVELY.
   ELEMENT FINAL_PART-1.1250 IS DISTORTING EXCESSIVELY.
   ELEMENT FINAL_PART-1.1251 IS DISTORTING EXCESSIVELY.
   ELEMENT FINAL_PART-1.1253 IS DISTORTING EXCESSIVELY.
   ELEMENT FINAL_PART-1.1254 IS DISTORTING EXCESSIVELY.
   ELEMENT FINAL_PART-1.1255 IS DISTORTING EXCESSIVELY.
   ELEMENT FINAL_PART-1.1257 IS DISTORTING EXCESSIVELY.
   ELEMENT FINAL_PART-1.1258 IS DISTORTING EXCESSIVELY.
   ELEMENT FINAL_PART-1.1259 IS DISTORTING EXCESSIVELY.
   ELEMENT FINAL_PART-1.1262 IS DISTORTING EXCESSIVELY.
   ELEMENT FINAL_PART-1.1263 IS DISTORTING EXCESSIVELY.
   ELEMENT FINAL_PART-1.1264 IS DISTORTING EXCESSIVELY.
   ELEMENT FINAL_PART-1.1265 IS DISTORTING EXCESSIVELY.
   ELEMENT FINAL_PART-1.1267 IS DISTORTING EXCESSIVELY.
   ELEMENT FINAL_PART-1.1268 IS DISTORTING EXCESSIVELY.
   ELEMENT FINAL_PART-1.1269 IS DISTORTING EXCESSIVELY.
   ELEMENT FINAL_PART-1.1273 IS DISTORTING EXCESSIVELY.
   ELEMENT FINAL_PART-1.1274 IS DISTORTING EXCESSIVELY.
   ELEMENT FINAL_PART-1.1277 IS DISTORTING EXCESSIVELY.
   ELEMENT FINAL_PART-1.1280 IS DISTORTING EXCESSIVELY.
   ELEMENT FINAL_PART-1.1282 IS DISTORTING EXCESSIVELY.
   ELEMENT FINAL_PART-1.1285 IS DISTORTING EXCESSIVELY.
   ELEMENT FINAL_PART-1.1287 IS DISTORTING EXCESSIVELY.
   ELEMENT FINAL_PART-1.1289 IS DISTORTING EXCESSIVELY.
   ELEMENT FINAL_PART-1.1290 IS DISTORTING EXCESSIVELY.
   ELEMENT FINAL_PART-1.1292 IS DISTORTING EXCESSIVELY.
   ELEMENT FINAL_PART-1.1293 IS DISTORTING EXCESSIVELY.
   ELEMENT FINAL_PART-1.1297 IS DISTORTING EXCESSIVELY.
   ELEMENT FINAL_PART-1.1299 IS DISTORTING EXCESSIVELY.
   ELEMENT FINAL_PART-1.1300 IS DISTORTING EXCESSIVELY.
   ELEMENT FINAL_PART-1.1302 IS DISTORTING EXCESSIVELY.
   ELEMENT FINAL_PART-1.1304 IS DISTORTING EXCESSIVELY.
   ELEMENT FINAL_PART-1.1305 IS DISTORTING EXCESSIVELY.
   ELEMENT FINAL_PART-1.1310 IS DISTORTING EXCESSIVELY.
   ELEMENT FINAL_PART-1.1312 IS DISTORTING EXCESSIVELY.
   ELEMENT FINAL_PART-1.1314 IS DISTORTING EXCESSIVELY.
   ELEMENT FINAL_PART-1.1319 IS DISTORTING EXCESSIVELY.
   ELEMENT FINAL_PART-1.1322 IS DISTORTING EXCESSIVELY.
   ELEMENT FINAL_PART-1.1324 IS DISTORTING EXCESSIVELY.
   ELEMENT FINAL_PART-1.1326 IS DISTORTING EXCESSIVELY.
   ELEMENT FINAL_PART-1.1327 IS DISTORTING EXCESSIVELY.
   ELEMENT FINAL_PART-1.1329 IS DISTORTING EXCESSIVELY.
   ELEMENT FINAL_PART-1.1332 IS DISTORTING EXCESSIVELY.
   ELEMENT FINAL_PART-1.1333 IS DISTORTING EXCESSIVELY.
   ELEMENT FINAL_PART-1.1334 IS DISTORTING EXCESSIVELY.
   ELEMENT FINAL_PART-1.1337 IS DISTORTING EXCESSIVELY.
   ELEMENT FINAL_PART-1.1339 IS DISTORTING EXCESSIVELY.
   ELEMENT FINAL_PART-1.1342 IS DISTORTING EXCESSIVELY.
   ELEMENT FINAL_PART-1.1344 IS DISTORTING EXCESSIVELY.
   ELEMENT FINAL_PART-1.1347 IS DISTORTING EXCESSIVELY.
   ELEMENT FINAL_PART-1.1348 IS DISTORTING EXCESSIVELY.
   ELEMENT FINAL_PART-1.1349 IS DISTORTING EXCESSIVELY.
   ELEMENT FINAL_PART-1.1353 IS DISTORTING EXCESSIVELY.
   ELEMENT FINAL_PART-1.1356 IS DISTORTING EXCESSIVELY.
   ELEMENT FINAL_PART-1.1357 IS DISTORTING EXCESSIVELY.
   ELEMENT FINAL_PART-1.1359 IS DISTORTING EXCESSIVELY.
   ELEMENT FINAL_PART-1.1362 IS DISTORTING EXCESSIVELY.
   ELEMENT FINAL_PART-1.1363 IS DISTORTING EXCESSIVELY.
   ELEMENT FINAL_PART-1.1364 IS DISTORTING EXCESSIVELY.
   ELEMENT FINAL_PART-1.1365 IS DISTORTING EXCESSIVELY.
   ELEMENT FINAL_PART-1.1367 IS DISTORTING EXCESSIVELY.
   ELEMENT FINAL_PART-1.1368 IS DISTORTING EXCESSIVELY.
   ELEMENT FINAL_PART-1.1369 IS DISTORTING EXCESSIVELY.
   ELEMENT FINAL_PART-1.1370 IS DISTORTING EXCESSIVELY.
   ELEMENT FINAL_PART-1.1374 IS DISTORTING EXCESSIVELY.
   ELEMENT FINAL_PART-1.1377 IS DISTORTING EXCESSIVELY.
   ELEMENT FINAL_PART-1.1379 IS DISTORTING EXCESSIVELY.
   ELEMENT FINAL_PART-1.1382 IS DISTORTING EXCESSIVELY.
   ELEMENT FINAL_PART-1.1383 IS DISTORTING EXCESSIVELY.
   ELEMENT FINAL_PART-1.1387 IS DISTORTING EXCESSIVELY.
   ELEMENT FINAL_PART-1.1389 IS DISTORTING EXCESSIVELY.
   ELEMENT FINAL_PART-1.1391 IS DISTORTING EXCESSIVELY.
   ELEMENT FINAL_PART-1.1392 IS DISTORTING EXCESSIVELY.
   ELEMENT FINAL_PART-1.1393 IS DISTORTING EXCESSIVELY.
   ELEMENT FINAL_PART-1.1395 IS DISTORTING EXCESSIVELY.
   ELEMENT FINAL_PART-1.1400 IS DISTORTING EXCESSIVELY.
   ELEMENT FINAL_PART-1.1403 IS DISTORTING EXCESSIVELY.
   ELEMENT FINAL_PART-1.1404 IS DISTORTING EXCESSIVELY.
   ELEMENT FINAL_PART-1.1405 IS DISTORTING EXCESSIVELY.
   ELEMENT FINAL_PART-1.1407 IS DISTORTING EXCESSIVELY.
   ELEMENT FINAL_PART-1.1410 IS DISTORTING EXCESSIVELY.
   ELEMENT FINAL_PART-1.1415 IS DISTORTING EXCESSIVELY.
   ELEMENT FINAL_PART-1.1417 IS DISTORTING EXCESSIVELY.
   ELEMENT FINAL_PART-1.1418 IS DISTORTING EXCESSIVELY.
   ELEMENT FINAL_PART-1.1419 IS DISTORTING EXCESSIVELY.
   ELEMENT FINAL_PART-1.1425 IS DISTORTING EXCESSIVELY.
   ELEMENT FINAL_PART-1.1426 IS DISTORTING EXCESSIVELY.
   ELEMENT FINAL_PART-1.1429 IS DISTORTING EXCESSIVELY.
   ELEMENT FINAL_PART-1.1433 IS DISTORTING EXCESSIVELY.
   ELEMENT FINAL_PART-1.1434 IS DISTORTING EXCESSIVELY.
   ELEMENT FINAL_PART-1.1437 IS DISTORTING EXCESSIVELY.
   ELEMENT FINAL_PART-1.1438 IS DISTORTING EXCESSIVELY.
   ELEMENT FINAL_PART-1.1439 IS DISTORTING EXCESSIVELY.
   ELEMENT FINAL_PART-1.1442 IS DISTORTING EXCESSIVELY.
   ELEMENT FINAL_PART-1.1445 IS DISTORTING EXCESSIVELY.
   ELEMENT FINAL_PART-1.1446 IS DISTORTING EXCESSIVELY.
   ELEMENT FINAL_PART-1.1448 IS DISTORTING EXCESSIVELY.
   ELEMENT FINAL_PART-1.1452 IS DISTORTING EXCESSIVELY.
   ELEMENT FINAL_PART-1.1456 IS DISTORTING EXCESSIVELY.
   ELEMENT FINAL_PART-1.1457 IS DISTORTING EXCESSIVELY.
   ELEMENT FINAL_PART-1.1458 IS DISTORTING EXCESSIVELY.
   ELEMENT FINAL_PART-1.1459 IS DISTORTING EXCESSIVELY.
   ELEMENT FINAL_PART-1.1460 IS DISTORTING EXCESSIVELY.
   ELEMENT FINAL_PART-1.1463 IS DISTORTING EXCESSIVELY.
   ELEMENT FINAL_PART-1.1464 IS DISTORTING EXCESSIVELY.
   ELEMENT FINAL_PART-1.1465 IS DISTORTING EXCESSIVELY.
   ELEMENT FINAL_PART-1.1466 IS DISTORTING EXCESSIVELY.
   ELEMENT FINAL_PART-1.1467 IS DISTORTING EXCESSIVELY.
   ELEMENT FINAL_PART-1.1470 IS DISTORTING EXCESSIVELY.
   ELEMENT FINAL_PART-1.1471 IS DISTORTING EXCESSIVELY.
   ELEMENT FINAL_PART-1.1472 IS DISTORTING EXCESSIVELY.
   ELEMENT FINAL_PART-1.1475 IS DISTORTING EXCESSIVELY.
   ELEMENT FINAL_PART-1.1477 IS DISTORTING EXCESSIVELY.
   ELEMENT FINAL_PART-1.1479 IS DISTORTING EXCESSIVELY.
   ELEMENT FINAL_PART-1.1483 IS DISTORTING EXCESSIVELY.
   ELEMENT FINAL_PART-1.1484 IS DISTORTING EXCESSIVELY.
   ELEMENT FINAL_PART-1.1486 IS DISTORTING EXCESSIVELY.
   ELEMENT FINAL_PART-1.1487 IS DISTORTING EXCESSIVELY.
   ELEMENT FINAL_PART-1.1488 IS DISTORTING EXCESSIVELY.
   ELEMENT FINAL_PART-1.1491 IS DISTORTING EXCESSIVELY.
   ELEMENT FINAL_PART-1.1495 IS DISTORTING EXCESSIVELY.
   ELEMENT FINAL_PART-1.1497 IS DISTORTING EXCESSIVELY.
   ELEMENT FINAL_PART-1.1498 IS DISTORTING EXCESSIVELY.
   ELEMENT FINAL_PART-1.1501 IS DISTORTING EXCESSIVELY.
   ELEMENT FINAL_PART-1.1502 IS DISTORTING EXCESSIVELY.
   ELEMENT FINAL_PART-1.1503 IS DISTORTING EXCESSIVELY.
   ELEMENT FINAL_PART-1.1505 IS DISTORTING EXCESSIVELY.
   ELEMENT FINAL_PART-1.1510 IS DISTORTING EXCESSIVELY.
   ELEMENT FINAL_PART-1.1511 IS DISTORTING EXCESSIVELY.
   ELEMENT FINAL_PART-1.1514 IS DISTORTING EXCESSIVELY.
   ELEMENT FINAL_PART-1.1517 IS DISTORTING EXCESSIVELY.
   ELEMENT FINAL_PART-1.1518 IS DISTORTING EXCESSIVELY.
   ELEMENT FINAL_PART-1.1520 IS DISTORTING EXCESSIVELY.
   ELEMENT FINAL_PART-1.1521 IS DISTORTING EXCESSIVELY.
   ELEMENT FINAL_PART-1.1522 IS DISTORTING EXCESSIVELY.
   ELEMENT FINAL_PART-1.1524 IS DISTORTING EXCESSIVELY.
   ELEMENT FINAL_PART-1.1525 IS DISTORTING EXCESSIVELY.
   ELEMENT FINAL_PART-1.1527 IS DISTORTING EXCESSIVELY.
   ELEMENT FINAL_PART-1.1528 IS DISTORTING EXCESSIVELY.
   ELEMENT FINAL_PART-1.1530 IS DISTORTING EXCESSIVELY.
   ELEMENT FINAL_PART-1.1534 IS DISTORTING EXCESSIVELY.
   ELEMENT FINAL_PART-1.1538 IS DISTORTING EXCESSIVELY.
   ELEMENT FINAL_PART-1.1540 IS DISTORTING EXCESSIVELY.
   ELEMENT FINAL_PART-1.1541 IS DISTORTING EXCESSIVELY.
   ELEMENT FINAL_PART-1.1542 IS DISTORTING EXCESSIVELY.
   ELEMENT FINAL_PART-1.1544 IS DISTORTING EXCESSIVELY.
   ELEMENT FINAL_PART-1.1545 IS DISTORTING EXCESSIVELY.
   ELEMENT FINAL_PART-1.1546 IS DISTORTING EXCESSIVELY.
   ELEMENT FINAL_PART-1.1549 IS DISTORTING EXCESSIVELY.
   ELEMENT FINAL_PART-1.1550 IS DISTORTING EXCESSIVELY.
   ELEMENT FINAL_PART-1.1553 IS DISTORTING EXCESSIVELY.
   ELEMENT FINAL_PART-1.1554 IS DISTORTING EXCESSIVELY.
   ELEMENT FINAL_PART-1.1557 IS DISTORTING EXCESSIVELY.
   ELEMENT FINAL_PART-1.1559 IS DISTORTING EXCESSIVELY.
   ELEMENT FINAL_PART-1.1560 IS DISTORTING EXCESSIVELY.
   ELEMENT FINAL_PART-1.1561 IS DISTORTING EXCESSIVELY.
   ELEMENT FINAL_PART-1.1563 IS DISTORTING EXCESSIVELY.
   ELEMENT FINAL_PART-1.1564 IS DISTORTING EXCESSIVELY.
   ELEMENT FINAL_PART-1.1566 IS DISTORTING EXCESSIVELY.
   ELEMENT FINAL_PART-1.1570 IS DISTORTING EXCESSIVELY.
   ELEMENT FINAL_PART-1.1571 IS DISTORTING EXCESSIVELY.
   ELEMENT FINAL_PART-1.1572 IS DISTORTING EXCESSIVELY.
   ELEMENT FINAL_PART-1.1573 IS DISTORTING EXCESSIVELY.
   ELEMENT FINAL_PART-1.1574 IS DISTORTING EXCESSIVELY.
   ELEMENT FINAL_PART-1.1575 IS DISTORTING EXCESSIVELY.
   ELEMENT FINAL_PART-1.1577 IS DISTORTING EXCESSIVELY.
   ELEMENT FINAL_PART-1.1578 IS DISTORTING EXCESSIVELY.
   ELEMENT FINAL_PART-1.1579 IS DISTORTING EXCESSIVELY.
   ELEMENT FINAL_PART-1.1580 IS DISTORTING EXCESSIVELY.
   ELEMENT FINAL_PART-1.1581 IS DISTORTING EXCESSIVELY.
   ELEMENT FINAL_PART-1.1587 IS DISTORTING EXCESSIVELY.
   ELEMENT FINAL_PART-1.1592 IS DISTORTING EXCESSIVELY.
   ELEMENT FINAL_PART-1.1594 IS DISTORTING EXCESSIVELY.
   ELEMENT FINAL_PART-1.1595 IS DISTORTING EXCESSIVELY.
   ELEMENT FINAL_PART-1.1596 IS DISTORTING EXCESSIVELY.
   ELEMENT FINAL_PART-1.1598 IS DISTORTING EXCESSIVELY.
   ELEMENT FINAL_PART-1.1600 IS DISTORTING EXCESSIVELY.
   ELEMENT FINAL_PART-1.1602 IS DISTORTING EXCESSIVELY.
   ELEMENT FINAL_PART-1.1604 IS DISTORTING EXCESSIVELY.
   ELEMENT FINAL_PART-1.1608 IS DISTORTING EXCESSIVELY.
   ELEMENT FINAL_PART-1.1614 IS DISTORTING EXCESSIVELY.
   ELEMENT FINAL_PART-1.1618 IS DISTORTING EXCESSIVELY.
   ELEMENT FINAL_PART-1.1620 IS DISTORTING EXCESSIVELY.
   ELEMENT FINAL_PART-1.1621 IS DISTORTING EXCESSIVELY.
   ELEMENT FINAL_PART-1.1622 IS DISTORTING EXCESSIVELY.
   ELEMENT FINAL_PART-1.1623 IS DISTORTING EXCESSIVELY.
   ELEMENT FINAL_PART-1.1624 IS DISTORTING EXCESSIVELY.
   ELEMENT FINAL_PART-1.1625 IS DISTORTING EXCESSIVELY.
   ELEMENT FINAL_PART-1.1629 IS DISTORTING EXCESSIVELY.
   ELEMENT FINAL_PART-1.1632 IS DISTORTING EXCESSIVELY.
   ELEMENT FINAL_PART-1.1636 IS DISTORTING EXCESSIVELY.
   ELEMENT FINAL_PART-1.1637 IS DISTORTING EXCESSIVELY.
   ELEMENT FINAL_PART-1.1638 IS DISTORTING EXCESSIVELY.
   ELEMENT FINAL_PART-1.1639 IS DISTORTING EXCESSIVELY.
   ELEMENT FINAL_PART-1.1646 IS DISTORTING EXCESSIVELY.
   ELEMENT FINAL_PART-1.1650 IS DISTORTING EXCESSIVELY.
   ELEMENT FINAL_PART-1.1653 IS DISTORTING EXCESSIVELY.
   ELEMENT FINAL_PART-1.1654 IS DISTORTING EXCESSIVELY.
   ELEMENT FINAL_PART-1.1656 IS DISTORTING EXCESSIVELY.
   ELEMENT FINAL_PART-1.1657 IS DISTORTING EXCESSIVELY.
   ELEMENT FINAL_PART-1.1658 IS DISTORTING EXCESSIVELY.
   ELEMENT FINAL_PART-1.1669 IS DISTORTING EXCESSIVELY.
   ELEMENT FINAL_PART-1.1670 IS DISTORTING EXCESSIVELY.
   ELEMENT FINAL_PART-1.1671 IS DISTORTING EXCESSIVELY.
   ELEMENT FINAL_PART-1.1672 IS DISTORTING EXCESSIVELY.
   ELEMENT FINAL_PART-1.1673 IS DISTORTING EXCESSIVELY.
   ELEMENT FINAL_PART-1.1674 IS DISTORTING EXCESSIVELY.
   ELEMENT FINAL_PART-1.1679 IS DISTORTING EXCESSIVELY.
   ELEMENT FINAL_PART-1.1681 IS DISTORTING EXCESSIVELY.
   ELEMENT FINAL_PART-1.1684 IS DISTORTING EXCESSIVELY.
   ELEMENT FINAL_PART-1.1685 IS DISTORTING EXCESSIVELY.
   ELEMENT FINAL_PART-1.1688 IS DISTORTING EXCESSIVELY.
   ELEMENT FINAL_PART-1.1693 IS DISTORTING EXCESSIVELY.
   ELEMENT FINAL_PART-1.1695 IS DISTORTING EXCESSIVELY.
   ELEMENT FINAL_PART-1.1697 IS DISTORTING EXCESSIVELY.
   ELEMENT FINAL_PART-1.1698 IS DISTORTING EXCESSIVELY.
   ELEMENT FINAL_PART-1.1699 IS DISTORTING EXCESSIVELY.
   ELEMENT FINAL_PART-1.1701 IS DISTORTING EXCESSIVELY.
   ELEMENT FINAL_PART-1.1702 IS DISTORTING EXCESSIVELY.
   ELEMENT FINAL_PART-1.1703 IS DISTORTING EXCESSIVELY.
   ELEMENT FINAL_PART-1.1704 IS DISTORTING EXCESSIVELY.
   ELEMENT FINAL_PART-1.1705 IS DISTORTING EXCESSIVELY.
   ELEMENT FINAL_PART-1.1706 IS DISTORTING EXCESSIVELY.
   ELEMENT FINAL_PART-1.1707 IS DISTORTING EXCESSIVELY.
   ELEMENT FINAL_PART-1.1708 IS DISTORTING EXCESSIVELY.
   ELEMENT FINAL_PART-1.1711 IS DISTORTING EXCESSIVELY.
   ELEMENT FINAL_PART-1.1714 IS DISTORTING EXCESSIVELY.
   ELEMENT FINAL_PART-1.1715 IS DISTORTING EXCESSIVELY.
   ELEMENT FINAL_PART-1.1716 IS DISTORTING EXCESSIVELY.
   ELEMENT FINAL_PART-1.1717 IS DISTORTING EXCESSIVELY.
   ELEMENT FINAL_PART-1.1722 IS DISTORTING EXCESSIVELY.
   ELEMENT FINAL_PART-1.1723 IS DISTORTING EXCESSIVELY.
   ELEMENT FINAL_PART-1.1725 IS DISTORTING EXCESSIVELY.
   ELEMENT FINAL_PART-1.1728 IS DISTORTING EXCESSIVELY.
   ELEMENT FINAL_PART-1.1729 IS DISTORTING EXCESSIVELY.
   ELEMENT FINAL_PART-1.1730 IS DISTORTING EXCESSIVELY.
   ELEMENT FINAL_PART-1.1731 IS DISTORTING EXCESSIVELY.
   ELEMENT FINAL_PART-1.1732 IS DISTORTING EXCESSIVELY.
   ELEMENT FINAL_PART-1.1733 IS DISTORTING EXCESSIVELY.
   ELEMENT FINAL_PART-1.1737 IS DISTORTING EXCESSIVELY.
   ELEMENT FINAL_PART-1.1739 IS DISTORTING EXCESSIVELY.
   ELEMENT FINAL_PART-1.1740 IS DISTORTING EXCESSIVELY.
   ELEMENT FINAL_PART-1.1741 IS DISTORTING EXCESSIVELY.
   ELEMENT FINAL_PART-1.1743 IS DISTORTING EXCESSIVELY.
   ELEMENT FINAL_PART-1.1744 IS DISTORTING EXCESSIVELY.
   ELEMENT FINAL_PART-1.1749 IS DISTORTING EXCESSIVELY.
   ELEMENT FINAL_PART-1.1750 IS DISTORTING EXCESSIVELY.
   ELEMENT FINAL_PART-1.1753 IS DISTORTING EXCESSIVELY.
   ELEMENT FINAL_PART-1.1755 IS DISTORTING EXCESSIVELY.
   ELEMENT FINAL_PART-1.1757 IS DISTORTING EXCESSIVELY.
   ELEMENT FINAL_PART-1.1759 IS DISTORTING EXCESSIVELY.
   ELEMENT FINAL_PART-1.1760 IS DISTORTING EXCESSIVELY.
   ELEMENT FINAL_PART-1.1769 IS DISTORTING EXCESSIVELY.
   ELEMENT FINAL_PART-1.1770 IS DISTORTING EXCESSIVELY.
   ELEMENT FINAL_PART-1.1771 IS DISTORTING EXCESSIVELY.
   ELEMENT FINAL_PART-1.1772 IS DISTORTING EXCESSIVELY.
   ELEMENT FINAL_PART-1.1773 IS DISTORTING EXCESSIVELY.
   ELEMENT FINAL_PART-1.1775 IS DISTORTING EXCESSIVELY.
   ELEMENT FINAL_PART-1.1776 IS DISTORTING EXCESSIVELY.
   ELEMENT FINAL_PART-1.1777 IS DISTORTING EXCESSIVELY.
   ELEMENT FINAL_PART-1.1778 IS DISTORTING EXCESSIVELY.
   ELEMENT FINAL_PART-1.1780 IS DISTORTING EXCESSIVELY.
   ELEMENT FINAL_PART-1.1781 IS DISTORTING EXCESSIVELY.
   ELEMENT FINAL_PART-1.1784 IS DISTORTING EXCESSIVELY.
   ELEMENT FINAL_PART-1.1785 IS DISTORTING EXCESSIVELY.
   ELEMENT FINAL_PART-1.1787 IS DISTORTING EXCESSIVELY.
   ELEMENT FINAL_PART-1.1788 IS DISTORTING EXCESSIVELY.
   ELEMENT FINAL_PART-1.1789 IS DISTORTING EXCESSIVELY.
   ELEMENT FINAL_PART-1.1791 IS DISTORTING EXCESSIVELY.
   ELEMENT FINAL_PART-1.1793 IS DISTORTING EXCESSIVELY.
   ELEMENT FINAL_PART-1.1796 IS DISTORTING EXCESSIVELY.
   ELEMENT FINAL_PART-1.1797 IS DISTORTING EXCESSIVELY.
   ELEMENT FINAL_PART-1.1800 IS DISTORTING EXCESSIVELY.
   ELEMENT FINAL_PART-1.1802 IS DISTORTING EXCESSIVELY.
   ELEMENT FINAL_PART-1.1803 IS DISTORTING EXCESSIVELY.
   ELEMENT FINAL_PART-1.1804 IS DISTORTING EXCESSIVELY.
   ELEMENT FINAL_PART-1.1806 IS DISTORTING EXCESSIVELY.
   ELEMENT FINAL_PART-1.1808 IS DISTORTING EXCESSIVELY.
   ELEMENT FINAL_PART-1.1809 IS DISTORTING EXCESSIVELY.
   ELEMENT FINAL_PART-1.1814 IS DISTORTING EXCESSIVELY.
   ELEMENT FINAL_PART-1.1815 IS DISTORTING EXCESSIVELY.
   ELEMENT FINAL_PART-1.1816 IS DISTORTING EXCESSIVELY.
   ELEMENT FINAL_PART-1.1817 IS DISTORTING EXCESSIVELY.
   ELEMENT FINAL_PART-1.1822 IS DISTORTING EXCESSIVELY.
   ELEMENT FINAL_PART-1.1823 IS DISTORTING EXCESSIVELY.
   ELEMENT FINAL_PART-1.1825 IS DISTORTING EXCESSIVELY.
   ELEMENT FINAL_PART-1.1834 IS DISTORTING EXCESSIVELY.
   ELEMENT FINAL_PART-1.1835 IS DISTORTING EXCESSIVELY.
   ELEMENT FINAL_PART-1.1836 IS DISTORTING EXCESSIVELY.
   ELEMENT FINAL_PART-1.1837 IS DISTORTING EXCESSIVELY.
   ELEMENT FINAL_PART-1.1839 IS DISTORTING EXCESSIVELY.
   ELEMENT FINAL_PART-1.1840 IS DISTORTING EXCESSIVELY.
   ELEMENT FINAL_PART-1.1843 IS DISTORTING EXCESSIVELY.
   ELEMENT FINAL_PART-1.1844 IS DISTORTING EXCESSIVELY.
   ELEMENT FINAL_PART-1.1845 IS DISTORTING EXCESSIVELY.
   ELEMENT FINAL_PART-1.1846 IS DISTORTING EXCESSIVELY.
   ELEMENT FINAL_PART-1.1847 IS DISTORTING EXCESSIVELY.
   ELEMENT FINAL_PART-1.1848 IS DISTORTING EXCESSIVELY.
   ELEMENT FINAL_PART-1.1849 IS DISTORTING EXCESSIVELY.
   ELEMENT FINAL_PART-1.1854 IS DISTORTING EXCESSIVELY.
   ELEMENT FINAL_PART-1.1858 IS DISTORTING EXCESSIVELY.
   ELEMENT FINAL_PART-1.1859 IS DISTORTING EXCESSIVELY.
   ELEMENT FINAL_PART-1.1860 IS DISTORTING EXCESSIVELY.
   ELEMENT FINAL_PART-1.1865 IS DISTORTING EXCESSIVELY.
   ELEMENT FINAL_PART-1.1867 IS DISTORTING EXCESSIVELY.
   ELEMENT FINAL_PART-1.1868 IS DISTORTING EXCESSIVELY.
   ELEMENT FINAL_PART-1.1869 IS DISTORTING EXCESSIVELY.
   ELEMENT FINAL_PART-1.1870 IS DISTORTING EXCESSIVELY.
   ELEMENT FINAL_PART-1.1871 IS DISTORTING EXCESSIVELY.
   ELEMENT FINAL_PART-1.1872 IS DISTORTING EXCESSIVELY.
   ELEMENT FINAL_PART-1.1874 IS DISTORTING EXCESSIVELY.
   ELEMENT FINAL_PART-1.1876 IS DISTORTING EXCESSIVELY.
   ELEMENT FINAL_PART-1.1878 IS DISTORTING EXCESSIVELY.
   ELEMENT FINAL_PART-1.1879 IS DISTORTING EXCESSIVELY.
   ELEMENT FINAL_PART-1.1881 IS DISTORTING EXCESSIVELY.
   ELEMENT FINAL_PART-1.1883 IS DISTORTING EXCESSIVELY.
   ELEMENT FINAL_PART-1.1884 IS DISTORTING EXCESSIVELY.
   ELEMENT FINAL_PART-1.1885 IS DISTORTING EXCESSIVELY.
   ELEMENT FINAL_PART-1.1886 IS DISTORTING EXCESSIVELY.
   ELEMENT FINAL_PART-1.1887 IS DISTORTING EXCESSIVELY.
   ELEMENT FINAL_PART-1.1890 IS DISTORTING EXCESSIVELY.
   ELEMENT FINAL_PART-1.1891 IS DISTORTING EXCESSIVELY.
   ELEMENT FINAL_PART-1.1895 IS DISTORTING EXCESSIVELY.
   ELEMENT FINAL_PART-1.1896 IS DISTORTING EXCESSIVELY.
   ELEMENT FINAL_PART-1.1897 IS DISTORTING EXCESSIVELY.
   ELEMENT FINAL_PART-1.1898 IS DISTORTING EXCESSIVELY.
   ELEMENT FINAL_PART-1.1899 IS DISTORTING EXCESSIVELY.
   ELEMENT FINAL_PART-1.1901 IS DISTORTING EXCESSIVELY.
   ELEMENT FINAL_PART-1.1903 IS DISTORTING EXCESSIVELY.
   ELEMENT FINAL_PART-1.1906 IS DISTORTING EXCESSIVELY.
   ELEMENT FINAL_PART-1.1913 IS DISTORTING EXCESSIVELY.
   ELEMENT FINAL_PART-1.1914 IS DISTORTING EXCESSIVELY.
   ELEMENT FINAL_PART-1.1916 IS DISTORTING EXCESSIVELY.
   ELEMENT FINAL_PART-1.1918 IS DISTORTING EXCESSIVELY.
   ELEMENT FINAL_PART-1.1919 IS DISTORTING EXCESSIVELY.
   ELEMENT FINAL_PART-1.1921 IS DISTORTING EXCESSIVELY.
   ELEMENT FINAL_PART-1.1922 IS DISTORTING EXCESSIVELY.
   ELEMENT FINAL_PART-1.1923 IS DISTORTING EXCESSIVELY.
   ELEMENT FINAL_PART-1.1924 IS DISTORTING EXCESSIVELY.
   ELEMENT FINAL_PART-1.1926 IS DISTORTING EXCESSIVELY.
   ELEMENT FINAL_PART-1.1927 IS DISTORTING EXCESSIVELY.
   ELEMENT FINAL_PART-1.1929 IS DISTORTING EXCESSIVELY.
   ELEMENT FINAL_PART-1.1940 IS DISTORTING EXCESSIVELY.
   ELEMENT FINAL_PART-1.1944 IS DISTORTING EXCESSIVELY.
   ELEMENT FINAL_PART-1.1945 IS DISTORTING EXCESSIVELY.
   ELEMENT FINAL_PART-1.1947 IS DISTORTING EXCESSIVELY.
   ELEMENT FINAL_PART-1.1948 IS DISTORTING EXCESSIVELY.
   ELEMENT FINAL_PART-1.1949 IS DISTORTING EXCESSIVELY.
   ELEMENT FINAL_PART-1.1952 IS DISTORTING EXCESSIVELY.
   ELEMENT FINAL_PART-1.1953 IS DISTORTING EXCESSIVELY.
   ELEMENT FINAL_PART-1.1955 IS DISTORTING EXCESSIVELY.
   ELEMENT FINAL_PART-1.1956 IS DISTORTING EXCESSIVELY.
   ELEMENT FINAL_PART-1.1958 IS DISTORTING EXCESSIVELY.
   ELEMENT FINAL_PART-1.1959 IS DISTORTING EXCESSIVELY.
   ELEMENT FINAL_PART-1.1962 IS DISTORTING EXCESSIVELY.
   ELEMENT FINAL_PART-1.1963 IS DISTORTING EXCESSIVELY.
   ELEMENT FINAL_PART-1.1965 IS DISTORTING EXCESSIVELY.
   ELEMENT FINAL_PART-1.1966 IS DISTORTING EXCESSIVELY.
   ELEMENT FINAL_PART-1.1967 IS DISTORTING EXCESSIVELY.
   ELEMENT FINAL_PART-1.1971 IS DISTORTING EXCESSIVELY.
   ELEMENT FINAL_PART-1.1972 IS DISTORTING EXCESSIVELY.
   ELEMENT FINAL_PART-1.1973 IS DISTORTING EXCESSIVELY.
   ELEMENT FINAL_PART-1.1974 IS DISTORTING EXCESSIVELY.
   ELEMENT FINAL_PART-1.1975 IS DISTORTING EXCESSIVELY.
   ELEMENT FINAL_PART-1.1976 IS DISTORTING EXCESSIVELY.
   ELEMENT FINAL_PART-1.1977 IS DISTORTING EXCESSIVELY.
   ELEMENT FINAL_PART-1.1978 IS DISTORTING EXCESSIVELY.
   ELEMENT FINAL_PART-1.1979 IS DISTORTING EXCESSIVELY.
   ELEMENT FINAL_PART-1.1980 IS DISTORTING EXCESSIVELY.
   ELEMENT FINAL_PART-1.1985 IS DISTORTING EXCESSIVELY.
   ELEMENT FINAL_PART-1.1987 IS DISTORTING EXCESSIVELY.
   ELEMENT FINAL_PART-1.1989 IS DISTORTING EXCESSIVELY.
   ELEMENT FINAL_PART-1.1991 IS DISTORTING EXCESSIVELY.
   ELEMENT FINAL_PART-1.1993 IS DISTORTING EXCESSIVELY.
   ELEMENT FINAL_PART-1.1994 IS DISTORTING EXCESSIVELY.
   ELEMENT FINAL_PART-1.1995 IS DISTORTING EXCESSIVELY.
   ELEMENT FINAL_PART-1.1996 IS DISTORTING EXCESSIVELY.
   ELEMENT FINAL_PART-1.1997 IS DISTORTING EXCESSIVELY.
   ELEMENT FINAL_PART-1.1998 IS DISTORTING EXCESSIVELY.
   ELEMENT FINAL_PART-1.2000 IS DISTORTING EXCESSIVELY.
   ELEMENT FINAL_PART-1.2002 IS DISTORTING EXCESSIVELY.
   ELEMENT FINAL_PART-1.2003 IS DISTORTING EXCESSIVELY.
   ELEMENT FINAL_PART-1.2005 IS DISTORTING EXCESSIVELY.
   ELEMENT FINAL_PART-1.2008 IS DISTORTING EXCESSIVELY.
   ELEMENT FINAL_PART-1.2012 IS DISTORTING EXCESSIVELY.
   ELEMENT FINAL_PART-1.2017 IS DISTORTING EXCESSIVELY.
   ELEMENT FINAL_PART-1.2018 IS DISTORTING EXCESSIVELY.
   ELEMENT FINAL_PART-1.2019 IS DISTORTING EXCESSIVELY.
   ELEMENT FINAL_PART-1.2020 IS DISTORTING EXCESSIVELY.
   ELEMENT FINAL_PART-1.2021 IS DISTORTING EXCESSIVELY.
   ELEMENT FINAL_PART-1.2025 IS DISTORTING EXCESSIVELY.
   ELEMENT FINAL_PART-1.2027 IS DISTORTING EXCESSIVELY.
   ELEMENT FINAL_PART-1.2035 IS DISTORTING EXCESSIVELY.
   ELEMENT FINAL_PART-1.2037 IS DISTORTING EXCESSIVELY.
   ELEMENT FINAL_PART-1.2038 IS DISTORTING EXCESSIVELY.
   ELEMENT FINAL_PART-1.2040 IS DISTORTING EXCESSIVELY.
   ELEMENT FINAL_PART-1.2041 IS DISTORTING EXCESSIVELY.
   ELEMENT FINAL_PART-1.2042 IS DISTORTING EXCESSIVELY.
   ELEMENT FINAL_PART-1.2043 IS DISTORTING EXCESSIVELY.
   ELEMENT FINAL_PART-1.2044 IS DISTORTING EXCESSIVELY.
   ELEMENT FINAL_PART-1.2045 IS DISTORTING EXCESSIVELY.
   ELEMENT FINAL_PART-1.2048 IS DISTORTING EXCESSIVELY.
   ELEMENT FINAL_PART-1.2054 IS DISTORTING EXCESSIVELY.
   ELEMENT FINAL_PART-1.2055 IS DISTORTING EXCESSIVELY.
   ELEMENT FINAL_PART-1.2057 IS DISTORTING EXCESSIVELY.
   ELEMENT FINAL_PART-1.2058 IS DISTORTING EXCESSIVELY.
   ELEMENT FINAL_PART-1.2059 IS DISTORTING EXCESSIVELY.
   ELEMENT FINAL_PART-1.2061 IS DISTORTING EXCESSIVELY.
   ELEMENT FINAL_PART-1.2066 IS DISTORTING EXCESSIVELY.
   ELEMENT FINAL_PART-1.2067 IS DISTORTING EXCESSIVELY.
   ELEMENT FINAL_PART-1.2068 IS DISTORTING EXCESSIVELY.
   ELEMENT FINAL_PART-1.2071 IS DISTORTING EXCESSIVELY.
   ELEMENT FINAL_PART-1.2077 IS DISTORTING EXCESSIVELY.
   ELEMENT FINAL_PART-1.2078 IS DISTORTING EXCESSIVELY.
   ELEMENT FINAL_PART-1.2080 IS DISTORTING EXCESSIVELY.
   ELEMENT FINAL_PART-1.2082 IS DISTORTING EXCESSIVELY.
   ELEMENT FINAL_PART-1.2083 IS DISTORTING EXCESSIVELY.
   ELEMENT FINAL_PART-1.2085 IS DISTORTING EXCESSIVELY.
   ELEMENT FINAL_PART-1.2088 IS DISTORTING EXCESSIVELY.
   ELEMENT FINAL_PART-1.2089 IS DISTORTING EXCESSIVELY.
   ELEMENT FINAL_PART-1.2090 IS DISTORTING EXCESSIVELY.
   ELEMENT FINAL_PART-1.2091 IS DISTORTING EXCESSIVELY.
   ELEMENT FINAL_PART-1.2093 IS DISTORTING EXCESSIVELY.
   ELEMENT FINAL_PART-1.2094 IS DISTORTING EXCESSIVELY.
   ELEMENT FINAL_PART-1.2095 IS DISTORTING EXCESSIVELY.
   ELEMENT FINAL_PART-1.2096 IS DISTORTING EXCESSIVELY.
   ELEMENT FINAL_PART-1.2097 IS DISTORTING EXCESSIVELY.
   ELEMENT FINAL_PART-1.2099 IS DISTORTING EXCESSIVELY.
   ELEMENT FINAL_PART-1.2101 IS DISTORTING EXCESSIVELY.
   ELEMENT FINAL_PART-1.2103 IS DISTORTING EXCESSIVELY.
   ELEMENT FINAL_PART-1.2109 IS DISTORTING EXCESSIVELY.
   ELEMENT FINAL_PART-1.2112 IS DISTORTING EXCESSIVELY.
   ELEMENT FINAL_PART-1.2116 IS DISTORTING EXCESSIVELY.
   ELEMENT FINAL_PART-1.2119 IS DISTORTING EXCESSIVELY.
   ELEMENT FINAL_PART-1.2121 IS DISTORTING EXCESSIVELY.
   ELEMENT FINAL_PART-1.2123 IS DISTORTING EXCESSIVELY.
   ELEMENT FINAL_PART-1.2126 IS DISTORTING EXCESSIVELY.
   ELEMENT FINAL_PART-1.2127 IS DISTORTING EXCESSIVELY.
   ELEMENT FINAL_PART-1.2128 IS DISTORTING EXCESSIVELY.
   ELEMENT FINAL_PART-1.2129 IS DISTORTING EXCESSIVELY.
   ELEMENT FINAL_PART-1.2130 IS DISTORTING EXCESSIVELY.
   ELEMENT FINAL_PART-1.2131 IS DISTORTING EXCESSIVELY.
   ELEMENT FINAL_PART-1.2132 IS DISTORTING EXCESSIVELY.
   ELEMENT FINAL_PART-1.2135 IS DISTORTING EXCESSIVELY.
   ELEMENT FINAL_PART-1.2137 IS DISTORTING EXCESSIVELY.
   ELEMENT FINAL_PART-1.2139 IS DISTORTING EXCESSIVELY.
   ELEMENT FINAL_PART-1.2141 IS DISTORTING EXCESSIVELY.
   ELEMENT FINAL_PART-1.2143 IS DISTORTING EXCESSIVELY.
   ELEMENT FINAL_PART-1.2145 IS DISTORTING EXCESSIVELY.
   ELEMENT FINAL_PART-1.2146 IS DISTORTING EXCESSIVELY.
   ELEMENT FINAL_PART-1.2147 IS DISTORTING EXCESSIVELY.
   ELEMENT FINAL_PART-1.2151 IS DISTORTING EXCESSIVELY.
   ELEMENT FINAL_PART-1.2152 IS DISTORTING EXCESSIVELY.
   ELEMENT FINAL_PART-1.2154 IS DISTORTING EXCESSIVELY.
   ELEMENT FINAL_PART-1.2156 IS DISTORTING EXCESSIVELY.
   ELEMENT FINAL_PART-1.2158 IS DISTORTING EXCESSIVELY.
   ELEMENT FINAL_PART-1.2162 IS DISTORTING EXCESSIVELY.
   ELEMENT FINAL_PART-1.2163 IS DISTORTING EXCESSIVELY.
   ELEMENT FINAL_PART-1.2165 IS DISTORTING EXCESSIVELY.
   ELEMENT FINAL_PART-1.2166 IS DISTORTING EXCESSIVELY.
   ELEMENT FINAL_PART-1.2167 IS DISTORTING EXCESSIVELY.
   ELEMENT FINAL_PART-1.2170 IS DISTORTING EXCESSIVELY.
   ELEMENT FINAL_PART-1.2172 IS DISTORTING EXCESSIVELY.
   ELEMENT FINAL_PART-1.2173 IS DISTORTING EXCESSIVELY.
   ELEMENT FINAL_PART-1.2175 IS DISTORTING EXCESSIVELY.
   ELEMENT FINAL_PART-1.2178 IS DISTORTING EXCESSIVELY.
   ELEMENT FINAL_PART-1.2179 IS DISTORTING EXCESSIVELY.
   ELEMENT FINAL_PART-1.2181 IS DISTORTING EXCESSIVELY.
   ELEMENT FINAL_PART-1.2182 IS DISTORTING EXCESSIVELY.
   ELEMENT FINAL_PART-1.2183 IS DISTORTING EXCESSIVELY.
   ELEMENT FINAL_PART-1.2188 IS DISTORTING EXCESSIVELY.
   ELEMENT FINAL_PART-1.2190 IS DISTORTING EXCESSIVELY.
   ELEMENT FINAL_PART-1.2191 IS DISTORTING EXCESSIVELY.
   ELEMENT FINAL_PART-1.2192 IS DISTORTING EXCESSIVELY.
   ELEMENT FINAL_PART-1.2193 IS DISTORTING EXCESSIVELY.
   ELEMENT FINAL_PART-1.2195 IS DISTORTING EXCESSIVELY.
   ELEMENT FINAL_PART-1.2196 IS DISTORTING EXCESSIVELY.
   ELEMENT FINAL_PART-1.2205 IS DISTORTING EXCESSIVELY.
   ELEMENT FINAL_PART-1.2206 IS DISTORTING EXCESSIVELY.
   ELEMENT FINAL_PART-1.2209 IS DISTORTING EXCESSIVELY.
   ELEMENT FINAL_PART-1.2216 IS DISTORTING EXCESSIVELY.
   ELEMENT FINAL_PART-1.2219 IS DISTORTING EXCESSIVELY.
   ELEMENT FINAL_PART-1.2220 IS DISTORTING EXCESSIVELY.
   ELEMENT FINAL_PART-1.2221 IS DISTORTING EXCESSIVELY.
   ELEMENT FINAL_PART-1.2223 IS DISTORTING EXCESSIVELY.
   ELEMENT FINAL_PART-1.2224 IS DISTORTING EXCESSIVELY.
   ELEMENT FINAL_PART-1.2225 IS DISTORTING EXCESSIVELY.
   ELEMENT FINAL_PART-1.2227 IS DISTORTING EXCESSIVELY.
   ELEMENT FINAL_PART-1.2229 IS DISTORTING EXCESSIVELY.
   ELEMENT FINAL_PART-1.2230 IS DISTORTING EXCESSIVELY.
   ELEMENT FINAL_PART-1.2233 IS DISTORTING EXCESSIVELY.
   ELEMENT FINAL_PART-1.2234 IS DISTORTING EXCESSIVELY.
   ELEMENT FINAL_PART-1.2236 IS DISTORTING EXCESSIVELY.
   ELEMENT FINAL_PART-1.2237 IS DISTORTING EXCESSIVELY.
   ELEMENT FINAL_PART-1.2238 IS DISTORTING EXCESSIVELY.
   ELEMENT FINAL_PART-1.2239 IS DISTORTING EXCESSIVELY.
   ELEMENT FINAL_PART-1.2244 IS DISTORTING EXCESSIVELY.
   ELEMENT FINAL_PART-1.2245 IS DISTORTING EXCESSIVELY.
   ELEMENT FINAL_PART-1.2246 IS DISTORTING EXCESSIVELY.
   ELEMENT FINAL_PART-1.2248 IS DISTORTING EXCESSIVELY.
   ELEMENT FINAL_PART-1.2252 IS DISTORTING EXCESSIVELY.
   ELEMENT FINAL_PART-1.2253 IS DISTORTING EXCESSIVELY.
   ELEMENT FINAL_PART-1.2258 IS DISTORTING EXCESSIVELY.
   ELEMENT FINAL_PART-1.2259 IS DISTORTING EXCESSIVELY.
   ELEMENT FINAL_PART-1.2260 IS DISTORTING EXCESSIVELY.
   ELEMENT FINAL_PART-1.2262 IS DISTORTING EXCESSIVELY.
   ELEMENT FINAL_PART-1.2268 IS DISTORTING EXCESSIVELY.
   ELEMENT FINAL_PART-1.2270 IS DISTORTING EXCESSIVELY.
   ELEMENT FINAL_PART-1.2274 IS DISTORTING EXCESSIVELY.
   ELEMENT FINAL_PART-1.2276 IS DISTORTING EXCESSIVELY.
   ELEMENT FINAL_PART-1.2282 IS DISTORTING EXCESSIVELY.
   ELEMENT FINAL_PART-1.2283 IS DISTORTING EXCESSIVELY.
   ELEMENT FINAL_PART-1.2288 IS DISTORTING EXCESSIVELY.
   ELEMENT FINAL_PART-1.2291 IS DISTORTING EXCESSIVELY.
   ELEMENT FINAL_PART-1.2293 IS DISTORTING EXCESSIVELY.
   ELEMENT FINAL_PART-1.2295 IS DISTORTING EXCESSIVELY.
   ELEMENT FINAL_PART-1.2296 IS DISTORTING EXCESSIVELY.
   ELEMENT FINAL_PART-1.2297 IS DISTORTING EXCESSIVELY.
   ELEMENT FINAL_PART-1.2298 IS DISTORTING EXCESSIVELY.
   ELEMENT FINAL_PART-1.2299 IS DISTORTING EXCESSIVELY.
   ELEMENT FINAL_PART-1.2301 IS DISTORTING EXCESSIVELY.
   ELEMENT FINAL_PART-1.2305 IS DISTORTING EXCESSIVELY.
   ELEMENT FINAL_PART-1.2307 IS DISTORTING EXCESSIVELY.
   ELEMENT FINAL_PART-1.2309 IS DISTORTING EXCESSIVELY.
   ELEMENT FINAL_PART-1.2313 IS DISTORTING EXCESSIVELY.
   ELEMENT FINAL_PART-1.2314 IS DISTORTING EXCESSIVELY.
   ELEMENT FINAL_PART-1.2317 IS DISTORTING EXCESSIVELY.
   ELEMENT FINAL_PART-1.2318 IS DISTORTING EXCESSIVELY.
   ELEMENT FINAL_PART-1.2320 IS DISTORTING EXCESSIVELY.
   ELEMENT FINAL_PART-1.2322 IS DISTORTING EXCESSIVELY.
   ELEMENT FINAL_PART-1.2325 IS DISTORTING EXCESSIVELY.
   ELEMENT FINAL_PART-1.2327 IS DISTORTING EXCESSIVELY.
   ELEMENT FINAL_PART-1.2332 IS DISTORTING EXCESSIVELY.
   ELEMENT FINAL_PART-1.2338 IS DISTORTING EXCESSIVELY.
   ELEMENT FINAL_PART-1.2340 IS DISTORTING EXCESSIVELY.
   ELEMENT FINAL_PART-1.2344 IS DISTORTING EXCESSIVELY.
   ELEMENT FINAL_PART-1.2346 IS DISTORTING EXCESSIVELY.
   ELEMENT FINAL_PART-1.2347 IS DISTORTING EXCESSIVELY.
   ELEMENT FINAL_PART-1.2349 IS DISTORTING EXCESSIVELY.
   ELEMENT FINAL_PART-1.2350 IS DISTORTING EXCESSIVELY.
   ELEMENT FINAL_PART-1.2352 IS DISTORTING EXCESSIVELY.
   ELEMENT FINAL_PART-1.2353 IS DISTORTING EXCESSIVELY.
   ELEMENT FINAL_PART-1.2356 IS DISTORTING EXCESSIVELY.
   ELEMENT FINAL_PART-1.2357 IS DISTORTING EXCESSIVELY.
   ELEMENT FINAL_PART-1.2359 IS DISTORTING EXCESSIVELY.
   ELEMENT FINAL_PART-1.2363 IS DISTORTING EXCESSIVELY.
   ELEMENT FINAL_PART-1.2365 IS DISTORTING EXCESSIVELY.
   ELEMENT FINAL_PART-1.2368 IS DISTORTING EXCESSIVELY.
   ELEMENT FINAL_PART-1.2376 IS DISTORTING EXCESSIVELY.
   ELEMENT FINAL_PART-1.2377 IS DISTORTING EXCESSIVELY.
   ELEMENT FINAL_PART-1.2379 IS DISTORTING EXCESSIVELY.
   ELEMENT FINAL_PART-1.2380 IS DISTORTING EXCESSIVELY.
   ELEMENT FINAL_PART-1.2384 IS DISTORTING EXCESSIVELY.
   ELEMENT FINAL_PART-1.2386 IS DISTORTING EXCESSIVELY.
   ELEMENT FINAL_PART-1.2392 IS DISTORTING EXCESSIVELY.
   ELEMENT FINAL_PART-1.2393 IS DISTORTING EXCESSIVELY.
   ELEMENT FINAL_PART-1.2394 IS DISTORTING EXCESSIVELY.
   ELEMENT FINAL_PART-1.2402 IS DISTORTING EXCESSIVELY.
   ELEMENT FINAL_PART-1.2404 IS DISTORTING EXCESSIVELY.
   ELEMENT FINAL_PART-1.2405 IS DISTORTING EXCESSIVELY.
   ELEMENT FINAL_PART-1.2408 IS DISTORTING EXCESSIVELY.
   ELEMENT FINAL_PART-1.2410 IS DISTORTING EXCESSIVELY.
   ELEMENT FINAL_PART-1.2416 IS DISTORTING EXCESSIVELY.
   ELEMENT FINAL_PART-1.2418 IS DISTORTING EXCESSIVELY.
   ELEMENT FINAL_PART-1.2420 IS DISTORTING EXCESSIVELY.
   ELEMENT FINAL_PART-1.2421 IS DISTORTING EXCESSIVELY.
   ELEMENT FINAL_PART-1.2422 IS DISTORTING EXCESSIVELY.
   ELEMENT FINAL_PART-1.2423 IS DISTORTING EXCESSIVELY.
   ELEMENT FINAL_PART-1.2428 IS DISTORTING EXCESSIVELY.
   ELEMENT FINAL_PART-1.2430 IS DISTORTING EXCESSIVELY.
   ELEMENT FINAL_PART-1.2431 IS DISTORTING EXCESSIVELY.
   ELEMENT FINAL_PART-1.2437 IS DISTORTING EXCESSIVELY.
   ELEMENT FINAL_PART-1.2439 IS DISTORTING EXCESSIVELY.
   ELEMENT FINAL_PART-1.2441 IS DISTORTING EXCESSIVELY.
[...]
          FORCE     EQUILIBRIUM NOT ACHIEVED WITHIN TOLERANCE.
 
	SYMMETRIC PURE THREAD-BASED DIRECT SPARSE SOLVER RUNNING ON
 	1 HOST x 1 MPI RANK PER HOST x 1 THREAD PER RANK
        NUMBER OF EQUATIONS:  409818
        NUMBER OF RHS:        1
        NUMBER OF FLOPS:      8.048e+10
        SOLVER ELAPSED TIME:  6.1s

               CONVERGENCE CHECKS FOR EQUILIBRIUM ITERATION     2


 AVERAGE FORCE                      0.115       TIME AVG. FORCE       6.703E-02
 LARGEST SCALED RESIDUAL FORCE     -1.817E-04   AT NODE        651   DOF  1
   INSTANCE: FINAL_PART-1                                                                    
  CORRESPONDING RESIDUAL FORCE     -1.817E-04
 LARGEST INCREMENT OF DISP.        -8.312E-04   AT NODE        100   DOF  1
   INSTANCE: FINAL_PART-1                                                                    
 LARGEST CORRECTION TO DISP.       -1.293E-06   AT NODE         76   DOF  1
   INSTANCE: FINAL_PART-1                                                                    
          THE FORCE     EQUILIBRIUM EQUATIONS HAVE CONVERGED
          TIME INCREMENT MAY NOW INCREASE TO    7.620E-03

 ITERATION SUMMARY FOR THE INCREMENT:   2 TOTAL ITERATIONS, OF WHICH
   0 ARE SEVERE DISCONTINUITY ITERATIONS AND  2 ARE EQUILIBRIUM ITERATIONS.

 TIME INCREMENT COMPLETED  5.080E-03,  FRACTION OF STEP COMPLETED  0.976    
 STEP TIME COMPLETED       0.976    ,  TOTAL TIME COMPLETED        0.976    


  INCREMENT    58 STARTS. ATTEMPT NUMBER  1, TIME INCREMENT  7.620E-03
 
	SYMMETRIC PURE THREAD-BASED DIRECT SPARSE SOLVER RUNNING ON
 	1 HOST x 1 MPI RANK PER HOST x 1 THREAD PER RANK
        NUMBER OF EQUATIONS:  409818
        NUMBER OF RHS:        1
        NUMBER OF FLOPS:      8.048e+10
        SOLVER ELAPSED TIME:  6.0s

               CONVERGENCE CHECKS FOR EQUILIBRIUM ITERATION     1


 AVERAGE FORCE                      0.116       TIME AVG. FORCE       6.787E-02
 LARGEST SCALED RESIDUAL FORCE     -6.473E-03   AT NODE      13211   DOF  3
   INSTANCE: FINAL_PART-1                                                                    
  CORRESPONDING RESIDUAL FORCE     -6.473E-03
 LARGEST INCREMENT OF DISP.        -1.203E-03   AT NODE        100   DOF  1
   INSTANCE: FINAL_PART-1                                                                    
 LARGEST CORRECTION TO DISP.        6.669E-05   AT NODE        119   DOF  1
   INSTANCE: FINAL_PART-1                                                                    
          FORCE     EQUILIBRIUM NOT ACHIEVED WITHIN TOLERANCE.
 
	SYMMETRIC PURE THREAD-BASED DIRECT SPARSE SOLVER RUNNING ON
 	1 HOST x 1 MPI RANK PER HOST x 1 THREAD PER RANK
        NUMBER OF EQUATIONS:  409818
        NUMBER OF RHS:        1
        NUMBER OF FLOPS:      8.048e+10
        SOLVER ELAPSED TIME:  5.9s
 

 ***WARNING: THE SYSTEM MATRIX HAS 1 NEGATIVE EIGENVALUES.
             EXPLANATIONS ARE SUGGESTED AFTER THE FIRST OCCURRENCE OF THIS MESSAGE.

               CONVERGENCE CHECKS FOR EQUILIBRIUM ITERATION     2


 AVERAGE FORCE                      0.116       TIME AVG. FORCE       6.787E-02
 LARGEST SCALED RESIDUAL FORCE     -2.560E-03   AT NODE      12169   DOF  1
   INSTANCE: FINAL_PART-1                                                                    
  CORRESPONDING RESIDUAL FORCE     -2.560E-03
 LARGEST INCREMENT OF DISP.        -1.174E-03   AT NODE        100   DOF  1
   INSTANCE: FINAL_PART-1                                                                    
 LARGEST CORRECTION TO DISP.        2.936E-05   AT NODE        100   DOF  1
   INSTANCE: FINAL_PART-1                                                                    
          FORCE     EQUILIBRIUM NOT ACHIEVED WITHIN TOLERANCE.
 
	SYMMETRIC PURE THREAD-BASED DIRECT SPARSE SOLVER RUNNING ON
 	1 HOST x 1 MPI RANK PER HOST x 1 THREAD PER RANK
        NUMBER OF EQUATIONS:  409818
        NUMBER OF RHS:        1
        NUMBER OF FLOPS:      8.048e+10
        SOLVER ELAPSED TIME:  5.5s

               CONVERGENCE CHECKS FOR EQUILIBRIUM ITERATION     3


 AVERAGE FORCE                      0.116       TIME AVG. FORCE       6.787E-02
 LARGEST SCALED RESIDUAL FORCE     -1.056E-03   AT NODE      12978   DOF  1
   INSTANCE: FINAL_PART-1                                                                    
  CORRESPONDING RESIDUAL FORCE     -1.056E-03
 LARGEST INCREMENT OF DISP.        -1.194E-03   AT NODE        100   DOF  1
   INSTANCE: FINAL_PART-1                                                                    
 LARGEST CORRECTION TO DISP.       -2.055E-05   AT NODE        100   DOF  1
   INSTANCE: FINAL_PART-1                                                                    
          FORCE     EQUILIBRIUM NOT ACHIEVED WITHIN TOLERANCE.
 
	SYMMETRIC PURE THREAD-BASED DIRECT SPARSE SOLVER RUNNING ON
 	1 HOST x 1 MPI RANK PER HOST x 1 THREAD PER RANK
        NUMBER OF EQUATIONS:  409818
        NUMBER OF RHS:        1
        NUMBER OF FLOPS:      8.048e+10
        SOLVER ELAPSED TIME:  6.1s

               CONVERGENCE CHECKS FOR EQUILIBRIUM ITERATION     4


 AVERAGE FORCE                      0.116       TIME AVG. FORCE       6.787E-02
 LARGEST SCALED RESIDUAL FORCE     -1.822E-03   AT NODE       9421   DOF  2
   INSTANCE: FINAL_PART-1                                                                    
  CORRESPONDING RESIDUAL FORCE     -1.822E-03
 LARGEST INCREMENT OF DISP.        -1.223E-03   AT NODE        100   DOF  1
   INSTANCE: FINAL_PART-1                                                                    
 LARGEST CORRECTION TO DISP.       -2.881E-05   AT NODE        100   DOF  1
   INSTANCE: FINAL_PART-1                                                                    
          FORCE     EQUILIBRIUM NOT ACHIEVED WITHIN TOLERANCE.
 
	SYMMETRIC PURE THREAD-BASED DIRECT SPARSE SOLVER RUNNING ON
 	1 HOST x 1 MPI RANK PER HOST x 1 THREAD PER RANK
        NUMBER OF EQUATIONS:  409818
        NUMBER OF RHS:        1
        NUMBER OF FLOPS:      8.048e+10
        SOLVER ELAPSED TIME:  6.0s

               CONVERGENCE CHECKS FOR EQUILIBRIUM ITERATION     5


 AVERAGE FORCE                      0.116       TIME AVG. FORCE       6.787E-02
 LARGEST SCALED RESIDUAL FORCE     -3.012E-04   AT NODE       9421   DOF  2
   INSTANCE: FINAL_PART-1                                                                    
  CORRESPONDING RESIDUAL FORCE     -3.012E-04
 LARGEST INCREMENT OF DISP.        -1.235E-03   AT NODE        100   DOF  1
   INSTANCE: FINAL_PART-1                                                                    
 LARGEST CORRECTION TO DISP.       -1.171E-05   AT NODE        100   DOF  1
   INSTANCE: FINAL_PART-1                                                                    
          THE FORCE     EQUILIBRIUM EQUATIONS HAVE CONVERGED

 ITERATION SUMMARY FOR THE INCREMENT:   5 TOTAL ITERATIONS, OF WHICH
   0 ARE SEVERE DISCONTINUITY ITERATIONS AND  5 ARE EQUILIBRIUM ITERATIONS.

 TIME INCREMENT COMPLETED  7.620E-03,  FRACTION OF STEP COMPLETED  0.984    
 STEP TIME COMPLETED       0.984    ,  TOTAL TIME COMPLETED        0.984    


  INCREMENT    59 STARTS. ATTEMPT NUMBER  1, TIME INCREMENT  7.620E-03
 
	SYMMETRIC PURE THREAD-BASED DIRECT SPARSE SOLVER RUNNING ON
 	1 HOST x 1 MPI RANK PER HOST x 1 THREAD PER RANK
        NUMBER OF EQUATIONS:  409818
        NUMBER OF RHS:        1
        NUMBER OF FLOPS:      8.048e+10
        SOLVER ELAPSED TIME:  6.3s

               CONVERGENCE CHECKS FOR EQUILIBRIUM ITERATION     1


 AVERAGE FORCE                      0.117       TIME AVG. FORCE       6.870E-02
 LARGEST SCALED RESIDUAL FORCE      1.050E-02   AT NODE      12345   DOF  1
   INSTANCE: FINAL_PART-1                                                                    
  CORRESPONDING RESIDUAL FORCE      1.050E-02
 LARGEST INCREMENT OF DISP.        -1.222E-03   AT NODE        100   DOF  1
   INSTANCE: FINAL_PART-1                                                                    
 LARGEST CORRECTION TO DISP.        4.994E-05   AT NODE        120   DOF  1
   INSTANCE: FINAL_PART-1                                                                    
          FORCE     EQUILIBRIUM NOT ACHIEVED WITHIN TOLERANCE.
 
	SYMMETRIC PURE THREAD-BASED DIRECT SPARSE SOLVER RUNNING ON
 	1 HOST x 1 MPI RANK PER HOST x 1 THREAD PER RANK
        NUMBER OF EQUATIONS:  409818
        NUMBER OF RHS:        1
        NUMBER OF FLOPS:      8.048e+10
        SOLVER ELAPSED TIME:  6.0s
 

 ***WARNING: THE SYSTEM MATRIX HAS 2 NEGATIVE EIGENVALUES.
             EXPLANATIONS ARE SUGGESTED AFTER THE FIRST OCCURRENCE OF THIS MESSAGE.

               CONVERGENCE CHECKS FOR EQUILIBRIUM ITERATION     2


 AVERAGE FORCE                      0.117       TIME AVG. FORCE       6.870E-02
 LARGEST SCALED RESIDUAL FORCE     -6.151E-04   AT NODE        651   DOF  1
   INSTANCE: FINAL_PART-1                                                                    
  CORRESPONDING RESIDUAL FORCE     -6.151E-04
 LARGEST INCREMENT OF DISP.        -1.219E-03   AT NODE        100   DOF  1
   INSTANCE: FINAL_PART-1                                                                    
 LARGEST CORRECTION TO DISP.       -6.134E-06   AT NODE        120   DOF  2
   INSTANCE: FINAL_PART-1                                                                    
          FORCE     EQUILIBRIUM NOT ACHIEVED WITHIN TOLERANCE.
 
	SYMMETRIC PURE THREAD-BASED DIRECT SPARSE SOLVER RUNNING ON
 	1 HOST x 1 MPI RANK PER HOST x 1 THREAD PER RANK
        NUMBER OF EQUATIONS:  409818
        NUMBER OF RHS:        1
        NUMBER OF FLOPS:      8.048e+10
        SOLVER ELAPSED TIME:  5.5s

               CONVERGENCE CHECKS FOR EQUILIBRIUM ITERATION     3


 AVERAGE FORCE                      0.117       TIME AVG. FORCE       6.870E-02
 LARGEST SCALED RESIDUAL FORCE     -8.978E-03   AT NODE       9421   DOF  2
   INSTANCE: FINAL_PART-1                                                                    
  CORRESPONDING RESIDUAL FORCE     -8.978E-03
 LARGEST INCREMENT OF DISP.        -1.282E-03   AT NODE        100   DOF  1
   INSTANCE: FINAL_PART-1                                                                    
 LARGEST CORRECTION TO DISP.       -6.380E-05   AT NODE         76   DOF  1
   INSTANCE: FINAL_PART-1                                                                    
          FORCE     EQUILIBRIUM NOT ACHIEVED WITHIN TOLERANCE.
 
	SYMMETRIC PURE THREAD-BASED DIRECT SPARSE SOLVER RUNNING ON
 	1 HOST x 1 MPI RANK PER HOST x 1 THREAD PER RANK
        NUMBER OF EQUATIONS:  409818
        NUMBER OF RHS:        1
        NUMBER OF FLOPS:      8.048e+10
        SOLVER ELAPSED TIME:  5.5s

               CONVERGENCE CHECKS FOR EQUILIBRIUM ITERATION     4


 AVERAGE FORCE                      0.117       TIME AVG. FORCE       6.870E-02
 LARGEST SCALED RESIDUAL FORCE     -1.765E-05   AT NODE        654   DOF  1
   INSTANCE: FINAL_PART-1                                                                    
  CORRESPONDING RESIDUAL FORCE     -1.765E-05
 LARGEST INCREMENT OF DISP.        -1.283E-03   AT NODE        100   DOF  1
   INSTANCE: FINAL_PART-1                                                                    
 LARGEST CORRECTION TO DISP.       -6.188E-07   AT NODE         76   DOF  1
   INSTANCE: FINAL_PART-1                                                                    
          THE FORCE     EQUILIBRIUM EQUATIONS HAVE CONVERGED

 ITERATION SUMMARY FOR THE INCREMENT:   4 TOTAL ITERATIONS, OF WHICH
   0 ARE SEVERE DISCONTINUITY ITERATIONS AND  4 ARE EQUILIBRIUM ITERATIONS.

 TIME INCREMENT COMPLETED  7.620E-03,  FRACTION OF STEP COMPLETED  0.992    
 STEP TIME COMPLETED       0.992    ,  TOTAL TIME COMPLETED        0.992    


  INCREMENT    60 STARTS. ATTEMPT NUMBER  1, TIME INCREMENT  7.620E-03
 
	SYMMETRIC PURE THREAD-BASED DIRECT SPARSE SOLVER RUNNING ON
 	1 HOST x 1 MPI RANK PER HOST x 1 THREAD PER RANK
        NUMBER OF EQUATIONS:  409818
        NUMBER OF RHS:        1
        NUMBER OF FLOPS:      8.048e+10
        SOLVER ELAPSED TIME:  6.0s

               CONVERGENCE CHECKS FOR EQUILIBRIUM ITERATION     1


 AVERAGE FORCE                      0.117       TIME AVG. FORCE       6.952E-02
 LARGEST SCALED RESIDUAL FORCE     -7.282E-03   AT NODE      13211   DOF  3
   INSTANCE: FINAL_PART-1                                                                    
  CORRESPONDING RESIDUAL FORCE     -7.282E-03
 LARGEST INCREMENT OF DISP.        -1.207E-03   AT NODE        100   DOF  1
   INSTANCE: FINAL_PART-1                                                                    
 LARGEST CORRECTION TO DISP.        9.847E-05   AT NODE        119   DOF  1
   INSTANCE: FINAL_PART-1                                                                    
          FORCE     EQUILIBRIUM NOT ACHIEVED WITHIN TOLERANCE.
 
	SYMMETRIC PURE THREAD-BASED DIRECT SPARSE SOLVER RUNNING ON
 	1 HOST x 1 MPI RANK PER HOST x 1 THREAD PER RANK
        NUMBER OF EQUATIONS:  409818
        NUMBER OF RHS:        1
        NUMBER OF FLOPS:      8.048e+10
        SOLVER ELAPSED TIME:  6.4s

               CONVERGENCE CHECKS FOR EQUILIBRIUM ITERATION     2


 AVERAGE FORCE                      0.118       TIME AVG. FORCE       6.952E-02
 LARGEST SCALED RESIDUAL FORCE     -8.581E-04   AT NODE        651   DOF  1
   INSTANCE: FINAL_PART-1                                                                    
  CORRESPONDING RESIDUAL FORCE     -8.581E-04
 LARGEST INCREMENT OF DISP.        -1.223E-03   AT NODE        100   DOF  1
   INSTANCE: FINAL_PART-1                                                                    
 LARGEST CORRECTION TO DISP.       -1.598E-05   AT NODE        100   DOF  1
   INSTANCE: FINAL_PART-1                                                                    
          FORCE     EQUILIBRIUM NOT ACHIEVED WITHIN TOLERANCE.
 
	SYMMETRIC PURE THREAD-BASED DIRECT SPARSE SOLVER RUNNING ON
 	1 HOST x 1 MPI RANK PER HOST x 1 THREAD PER RANK
        NUMBER OF EQUATIONS:  409818
        NUMBER OF RHS:        1
        NUMBER OF FLOPS:      8.048e+10
        SOLVER ELAPSED TIME:  5.7s

               CONVERGENCE CHECKS FOR EQUILIBRIUM ITERATION     3


 AVERAGE FORCE                      0.118       TIME AVG. FORCE       6.952E-02
 LARGEST SCALED RESIDUAL FORCE     -2.938E-03   AT NODE       9421   DOF  2
   INSTANCE: FINAL_PART-1                                                                    
  CORRESPONDING RESIDUAL FORCE     -2.938E-03
 LARGEST INCREMENT OF DISP.        -1.261E-03   AT NODE        100   DOF  1
   INSTANCE: FINAL_PART-1                                                                    
 LARGEST CORRECTION TO DISP.       -3.802E-05   AT NODE         76   DOF  1
   INSTANCE: FINAL_PART-1                                                                    
          FORCE     EQUILIBRIUM NOT ACHIEVED WITHIN TOLERANCE.
 
	SYMMETRIC PURE THREAD-BASED DIRECT SPARSE SOLVER RUNNING ON
 	1 HOST x 1 MPI RANK PER HOST x 1 THREAD PER RANK
        NUMBER OF EQUATIONS:  409818
        NUMBER OF RHS:        1
        NUMBER OF FLOPS:      8.048e+10
        SOLVER ELAPSED TIME:  6.1s

               CONVERGENCE CHECKS FOR EQUILIBRIUM ITERATION     4


 AVERAGE FORCE                      0.118       TIME AVG. FORCE       6.952E-02
 LARGEST SCALED RESIDUAL FORCE     -5.174E-05   AT NODE       9421   DOF  2
   INSTANCE: FINAL_PART-1                                                                    
  CORRESPONDING RESIDUAL FORCE     -5.174E-05
 LARGEST INCREMENT OF DISP.        -1.266E-03   AT NODE        100   DOF  1
   INSTANCE: FINAL_PART-1                                                                    
 LARGEST CORRECTION TO DISP.       -4.969E-06   AT NODE         76   DOF  1
   INSTANCE: FINAL_PART-1                                                                    
          THE FORCE     EQUILIBRIUM EQUATIONS HAVE CONVERGED

 ITERATION SUMMARY FOR THE INCREMENT:   4 TOTAL ITERATIONS, OF WHICH
   0 ARE SEVERE DISCONTINUITY ITERATIONS AND  4 ARE EQUILIBRIUM ITERATIONS.

 TIME INCREMENT COMPLETED  7.620E-03,  FRACTION OF STEP COMPLETED  0.999    
 STEP TIME COMPLETED       0.999    ,  TOTAL TIME COMPLETED        0.999    


  INCREMENT    61 STARTS. ATTEMPT NUMBER  1, TIME INCREMENT  7.268E-04
 
	SYMMETRIC PURE THREAD-BASED DIRECT SPARSE SOLVER RUNNING ON
 	1 HOST x 1 MPI RANK PER HOST x 1 THREAD PER RANK
        NUMBER OF EQUATIONS:  409818
        NUMBER OF RHS:        1
        NUMBER OF FLOPS:      8.048e+10
        SOLVER ELAPSED TIME:  6.2s

               CONVERGENCE CHECKS FOR EQUILIBRIUM ITERATION     1


 AVERAGE FORCE                      0.118       TIME AVG. FORCE       7.031E-02
 LARGEST SCALED RESIDUAL FORCE     -7.128E-04   AT NODE      12978   DOF  1
   INSTANCE: FINAL_PART-1                                                                    
  CORRESPONDING RESIDUAL FORCE     -7.128E-04
 LARGEST INCREMENT OF DISP.        -1.391E-04   AT NODE        100   DOF  1
   INSTANCE: FINAL_PART-1                                                                    
 LARGEST CORRECTION TO DISP.       -1.831E-05   AT NODE        100   DOF  1
   INSTANCE: FINAL_PART-1                                                                    
          FORCE     EQUILIBRIUM NOT ACHIEVED WITHIN TOLERANCE.
 
	SYMMETRIC PURE THREAD-BASED DIRECT SPARSE SOLVER RUNNING ON
 	1 HOST x 1 MPI RANK PER HOST x 1 THREAD PER RANK
        NUMBER OF EQUATIONS:  409818
        NUMBER OF RHS:        1
        NUMBER OF FLOPS:      8.048e+10
        SOLVER ELAPSED TIME:  5.7s

               CONVERGENCE CHECKS FOR EQUILIBRIUM ITERATION     2


 AVERAGE FORCE                      0.118       TIME AVG. FORCE       7.031E-02
 LARGEST SCALED RESIDUAL FORCE     -4.665E-05   AT NODE        654   DOF  1
   INSTANCE: FINAL_PART-1                                                                    
  CORRESPONDING RESIDUAL FORCE     -4.665E-05
 LARGEST INCREMENT OF DISP.        -1.419E-04   AT NODE        100   DOF  1
   INSTANCE: FINAL_PART-1                                                                    
 LARGEST CORRECTION TO DISP.       -2.820E-06   AT NODE         76   DOF  1
   INSTANCE: FINAL_PART-1                                                                    
 ESTIMATE OF DISP.    CORRECTION   -1.846E-07
          FORCE     EQUILIB. ACCEPTED BASED ON SMALL RESIDUAL AND ESTIMATED CORRECTION

 ITERATION SUMMARY FOR THE INCREMENT:   2 TOTAL ITERATIONS, OF WHICH
   0 ARE SEVERE DISCONTINUITY ITERATIONS AND  2 ARE EQUILIBRIUM ITERATIONS.

 TIME INCREMENT COMPLETED  7.268E-04,  FRACTION OF STEP COMPLETED   1.00    
 STEP TIME COMPLETED        1.00    ,  TOTAL TIME COMPLETED         1.00    


          THE ANALYSIS HAS BEEN COMPLETED



     ANALYSIS SUMMARY:
     TOTAL OF         61  INCREMENTS
                      12  CUTBACKS IN AUTOMATIC INCREMENTATION
                     327  ITERATIONS INCLUDING CONTACT ITERATIONS IF PRESENT
                     327  PASSES THROUGH THE EQUATION SOLVER OF WHICH 
                     327  INVOLVE MATRIX DECOMPOSITION, INCLUDING
                       0  DECOMPOSITION(S) OF THE MASS MATRIX
                       1  REORDERING OF EQUATIONS TO MINIMIZE WAVEFRONT
                       0  ADDITIONAL RESIDUAL EVALUATIONS FOR LINE SEARCHES
                       0  ADDITIONAL OPERATOR EVALUATIONS FOR LINE SEARCHES
                       1  WARNING MESSAGES DURING USER INPUT PROCESSING
                      56  WARNING MESSAGES DURING ANALYSIS
                       0  ANALYSIS WARNINGS ARE NUMERICAL PROBLEM MESSAGES
                      53  ANALYSIS WARNINGS ARE NEGATIVE EIGENVALUE MESSAGES
                       0  ERROR MESSAGES



     JOB TIME SUMMARY
       USER TIME (SEC)      =     1.22E+04
       SYSTEM TIME (SEC)    =     1.85E+03
       TOTAL CPU TIME (SEC) =     1.41E+04
       WALLCLOCK TIME (SEC) =        35630
       MEMORY PEAK (GB)     =            0
