 Abaqus/Standard 2025                  DATE 22-Feb-2026 TIME 22:30:24
 SUMMARY OF JOB INFORMATION:
 STEP  INC ATT SEVERE EQUIL TOTAL  TOTAL      STEP       INC OF       DOF    IF
               DISCON ITERS ITERS  TIME/    TIME/LPF    TIME/LPF    MONITOR RIKS
               ITERS               FREQ
   1     1   1U    0     1     1  0.00       0.00       1.000     
   1     1   2U    0     2     2  0.00       0.00       0.2500    
   1     1   3U    0     3     3  0.00       0.00       0.06250   
   1     1   4U    0     4     4  0.00       0.00       0.01562   
   1     1   5     0     8     8  0.00391    0.00391    0.003906  
   1     2   1     0     4     4  0.00781    0.00781    0.003906  
   1     3   1     0     4     4  0.0117     0.0117     0.003906  
   1     4   1     0     4     4  0.0176     0.0176     0.005859  
   1     5   1     0     5     5  0.0264     0.0264     0.008789  
   1     6   1     0     5     5  0.0352     0.0352     0.008789  
   1     7   1     0     4     4  0.0439     0.0439     0.008789  
   1     8   1     0     4     4  0.0527     0.0527     0.008789  
   1     9   1     0     4     4  0.0659     0.0659     0.01318   
   1    10   1     0     5     5  0.0857     0.0857     0.01978   
   1    11   1     0     4     4  0.105      0.105      0.01978   
   1    12   1     0     4     4  0.125      0.125      0.01978   
   1    13   1     0     5     5  0.155      0.155      0.02966   
   1    14   1     0     8     8  0.185      0.185      0.02966   
   1    15   1     0     4     4  0.214      0.214      0.02966   
   1    16   1     0     4     4  0.244      0.244      0.02966   
   1    17   1     0     5     5  0.288      0.288      0.04449   
   1    18   1     0     5     5  0.333      0.333      0.04449   
