 Abaqus/Standard 2025                  DATE 22-Feb-2026 TIME 22:30:24
 SUMMARY OF JOB INFORMATION:
 STEP  INC ATT SEVERE EQUIL TOTAL  TOTAL      STEP       INC OF       DOF    IF
               DISCON ITERS ITERS  TIME/    TIME/LPF    TIME/LPF    MONITOR RIKS
               ITERS               FREQ
   1     1   1U    0     1     1  0.00       0.00       1.000     
   1     1   2U    0     2     2  0.00       0.00       0.2500    
   1     1   3U    0     3     3  0.00       0.00       0.06250   
   1     1   4U    0     4     4  0.00       0.00       0.01562   
   1     1   5     0     8     8  0.00391    0.00391    0.003906  
   1     2   1     0     4     4  0.00781    0.00781    0.003906  
   1     3   1     0     4     4  0.0117     0.0117     0.003906  
   1     4   1     0     4     4  0.0176     0.0176     0.005859  
   1     5   1     0     5     5  0.0264     0.0264     0.008789  
   1     6   1     0     5     5  0.0352     0.0352     0.008789  
   1     7   1     0     4     4  0.0439     0.0439     0.008789  
   1     8   1     0     4     4  0.0527     0.0527     0.008789  
   1     9   1     0     4     4  0.0659     0.0659     0.01318   
   1    10   1     0     5     5  0.0857     0.0857     0.01978   
   1    11   1     0     4     4  0.105      0.105      0.01978   
   1    12   1     0     4     4  0.125      0.125      0.01978   
   1    13   1     0     5     5  0.155      0.155      0.02966   
   1    14   1     0     8     8  0.185      0.185      0.02966   
   1    15   1     0     4     4  0.214      0.214      0.02966   
   1    16   1     0     4     4  0.244      0.244      0.02966   
   1    17   1     0     5     5  0.288      0.288      0.04449   
   1    18   1     0     5     5  0.333      0.333      0.04449   
   1    19   1     0     6     6  0.377      0.377      0.04449   
   1    20   1     0     6     6  0.422      0.422      0.04449   
   1    21   1     0     6     6  0.466      0.466      0.04449   
   1    22   1     0     6     6  0.511      0.511      0.04449   
   1    23   1     0     6     6  0.555      0.555      0.04449   
   1    24   1U    0     5     5  0.555      0.555      0.04449   
   1    24   2     0     4     4  0.566      0.566      0.01112   
   1    25   1     0     5     5  0.578      0.578      0.01112   
   1    26   1     0     5     5  0.589      0.589      0.01112   
   1    27   1     0     5     5  0.600      0.600      0.01112   
   1    28   1     0     5     5  0.611      0.611      0.01112   
   1    29   1     0     4     4  0.622      0.622      0.01112   
   1    30   1     0     4     4  0.633      0.633      0.01112   
   1    31   1     0     4     4  0.650      0.650      0.01669   
   1    32   1     0     4     4  0.675      0.675      0.02503   
   1    33   1     0     4     4  0.712      0.712      0.03754   
   1    34   1U    0     6     6  0.712      0.712      0.05631   
   1    34   2     0     4     4  0.727      0.727      0.01408   
   1    35   1     0     4     4  0.748      0.748      0.02112   
   1    36   1     0     4     4  0.779      0.779      0.03168   
   1    37   1U    0     6     6  0.779      0.779      0.04751   
   1    37   2     0     6     6  0.791      0.791      0.01188   
   1    38   1     0     4     4  0.803      0.803      0.01188   
   1    39   1     0     4     4  0.815      0.815      0.01188   
   1    40   1     0     4     4  0.833      0.833      0.01782   
   1    41   1     0     4     4  0.860      0.860      0.02673   
   1    42   1U    0     5     5  0.860      0.860      0.04009   
   1    42   2     0     4     4  0.870      0.870      0.01002   
   1    43   1     0     4     4  0.885      0.885      0.01503   
   1    44   1U    0     5     5  0.885      0.885      0.02255   
   1    44   2     0     3     3  0.890      0.890      0.005638  
