 Abaqus/Standard 2025                  DATE 22-Feb-2026 TIME 03:07:19
 SUMMARY OF JOB INFORMATION:
 STEP  INC ATT SEVERE EQUIL TOTAL  TOTAL      STEP       INC OF       DOF    IF
               DISCON ITERS ITERS  TIME/    TIME/LPF    TIME/LPF    MONITOR RIKS
               ITERS               FREQ
   1     1   1U    0     2     2  0.00       0.00       1.000     
   1     1   2U    0     2     2  0.00       0.00       0.2500    
   1     1   3U    0     4     4  0.00       0.00       0.06250   
   1     1   4U    0     4     4  0.00       0.00       0.01562   
   1     1   5     0     7     7  0.00391    0.00391    0.003906  
   1     2   1     0     4     4  0.00781    0.00781    0.003906  
   1     3   1     0     4     4  0.0117     0.0117     0.003906  
   1     4   1     0     4     4  0.0176     0.0176     0.005859  
   1     5   1     0     4     4  0.0264     0.0264     0.008789  
   1     6   1     0     4     4  0.0396     0.0396     0.01318   
   1     7   1     0     4     4  0.0593     0.0593     0.01978   
   1     8   1U    0     5     5  0.0593     0.0593     0.02966   
   1     8   2     0     2     2  0.0667     0.0667     0.007416  
   1     9   1     0     2     2  0.0779     0.0779     0.01112   
   1    10   1     0     4     4  0.0946     0.0946     0.01669   
   1    11   1     0     4     4  0.120      0.120      0.02503   
   1    12   1     0     4     4  0.157      0.157      0.03754   
   1    13   1     0     4     4  0.213      0.213      0.05631   
   1    14   1     0     6     6  0.298      0.298      0.08447   
   1    15   1     0     4     4  0.382      0.382      0.08447   
   1    16   1     0     4     4  0.467      0.467      0.08447   
   1    17   1     0     4     4  0.594      0.594      0.1267    
   1    18   1     0     4     4  0.784      0.784      0.1901    
   1    19   1     0     4     4  1.00       1.00       0.2164    
                          
 THE ANALYSIS HAS COMPLETED SUCCESSFULLY
