 Abaqus/Standard 2025                  DATE 22-Feb-2026 TIME 14:31:23
 SUMMARY OF JOB INFORMATION:
 STEP  INC ATT SEVERE EQUIL TOTAL  TOTAL      STEP       INC OF       DOF    IF
               DISCON ITERS ITERS  TIME/    TIME/LPF    TIME/LPF    MONITOR RIKS
               ITERS               FREQ
   1     1   1U    0     2     2  0.00       0.00       1.000     
   1     1   2U    0     4     4  0.00       0.00       0.2500    
   1     1   3U    0     9     9  0.00       0.00       0.06250   
   1     1   4     0     5     5  0.0312     0.0312     0.03125   
   1     2   1     0     3     3  0.0625     0.0625     0.03125   
   1     3   1     0     2     2  0.0938     0.0938     0.03125   
   1     4   1     0     3     3  0.141      0.141      0.04688   
   1     5   1     0     4     4  0.211      0.211      0.07031   
   1     6   1     0     7     7  0.316      0.316      0.1055    
   1     7   1     0     7     7  0.422      0.422      0.1055    
   1     8   1U    0     9     9  0.422      0.422      0.1055    
   1     8   2     0     3     3  0.448      0.448      0.02637   
   1     9   1     0     3     3  0.475      0.475      0.02637   
   1    10   1     0     3     3  0.514      0.514      0.03955   
   1    11   1     0     3     3  0.573      0.573      0.05933   
   1    12   1     0     5     5  0.662      0.662      0.08899   
   1    13   1     0     7     7  0.751      0.751      0.08899   
   1    14   1     0     9     9  0.840      0.840      0.08899   
   1    15   1     0    10    10  0.929      0.929      0.08899   
   1    16   1     0    10    10  1.00       1.00       0.07056   
                          
 THE ANALYSIS HAS COMPLETED SUCCESSFULLY
