 Abaqus/Standard 2025                  DATE 22-Feb-2026 TIME 23:55:43
 SUMMARY OF JOB INFORMATION:
 STEP  INC ATT SEVERE EQUIL TOTAL  TOTAL      STEP       INC OF       DOF    IF
               DISCON ITERS ITERS  TIME/    TIME/LPF    TIME/LPF    MONITOR RIKS
               ITERS               FREQ
   1     1   1U    0     2     2  0.00       0.00       1.000     
   1     1   2U    0     2     2  0.00       0.00       0.2500    
   1     1   3U    0     4     4  0.00       0.00       0.06250   
   1     1   4     0     9     9  0.0156     0.0156     0.01562   
   1     2   1     0     4     4  0.0312     0.0312     0.01562   
   1     3   1     0     4     4  0.0469     0.0469     0.01562   
   1     4   1     0     5     5  0.0703     0.0703     0.02344   
   1     5   1     0     6     6  0.0938     0.0938     0.02344   
   1     6   1     0     6     6  0.117      0.117      0.02344   
   1     7   1U    0     5     5  0.117      0.117      0.02344   
   1     7   2     0     5     5  0.123      0.123      0.005859  
   1     8   1     0     5     5  0.129      0.129      0.005859  
   1     9   1     0     6     6  0.135      0.135      0.005859  
   1    10   1U    0     6     6  0.135      0.135      0.005859  
   1    10   2     0     6     6  0.136      0.136      0.001465  
   1    11   1     0     5     5  0.138      0.138      0.001465  
   1    12   1     0     6     6  0.139      0.139      0.001465  
   1    13   1U    0     9     9  0.139      0.139      0.001465  
   1    13   2     0     6     6  0.140      0.140      0.0007324 
   1    14   1     0     8     8  0.141      0.141      0.0007324 
   1    15   1U    0     9     9  0.141      0.141      0.0007324 
   1    15   2     0     2     2  0.141      0.141      0.0001831 
   1    16   1     0     2     2  0.141      0.141      0.0001831 
   1    17   1     0     6     6  0.141      0.141      0.0002747 
   1    18   1U    0     5     5  0.141      0.141      0.0002747 
   1    18   2     0     2     2  0.141      0.141      6.866e-05 
   1    19   1     0     2     2  0.141      0.141      6.866e-05 
   1    20   1     0     4     4  0.142      0.142      0.0001030 
   1    21   1U    0     6     6  0.142      0.142      0.0001545 
   1    21   2U    0     5     5  0.142      0.142      3.862e-05 
   1    21   3U    0     5     5  0.142      0.142      1.000e-05 
                          
 THE ANALYSIS HAS NOT BEEN COMPLETED
