 Abaqus/Standard 2025                  DATE 22-Feb-2026 TIME 23:48:58
 SUMMARY OF JOB INFORMATION:
 STEP  INC ATT SEVERE EQUIL TOTAL  TOTAL      STEP       INC OF       DOF    IF
               DISCON ITERS ITERS  TIME/    TIME/LPF    TIME/LPF    MONITOR RIKS
               ITERS               FREQ
   1     1   1U    0     1     1  0.00       0.00       1.000     
   1     1   2U    0     2     2  0.00       0.00       0.2500    
   1     1   3U    0     3     3  0.00       0.00       0.06250   
   1     1   4U    0     5     5  0.00       0.00       0.01562   
   1     1   5     0     8     8  0.00391    0.00391    0.003906  
   1     2   1     0     4     4  0.00781    0.00781    0.003906  
   1     3   1     0     4     4  0.0117     0.0117     0.003906  
   1     4   1     0     4     4  0.0176     0.0176     0.005859  
   1     5   1     0     5     5  0.0264     0.0264     0.008789  
   1     6   1     0     5     5  0.0352     0.0352     0.008789  
   1     7   1     0     4     4  0.0439     0.0439     0.008789  
   1     8   1     0     4     4  0.0527     0.0527     0.008789  
   1     9   1     0     4     4  0.0659     0.0659     0.01318   
   1    10   1     0     5     5  0.0857     0.0857     0.01978   
   1    11   1     0     4     4  0.105      0.105      0.01978   
   1    12   1     0     4     4  0.125      0.125      0.01978   
   1    13   1     0     5     5  0.155      0.155      0.02966   
   1    14   1     0     6     6  0.185      0.185      0.02966   
   1    15   1     0     4     4  0.214      0.214      0.02966   
   1    16   1     0     4     4  0.244      0.244      0.02966   
   1    17   1     0     5     5  0.288      0.288      0.04449   
   1    18   1     0     5     5  0.333      0.333      0.04449   
   1    19   1     0     6     6  0.377      0.377      0.04449   
   1    20   1     0     6     6  0.422      0.422      0.04449   
   1    21   1     0     6     6  0.466      0.466      0.04449   
   1    22   1     0     6     6  0.511      0.511      0.04449   
   1    23   1     0     9     9  0.555      0.555      0.04449   
   1    24   1U    0     5     5  0.555      0.555      0.04449   
   1    24   2     0     4     4  0.566      0.566      0.01112   
   1    25   1     0     5     5  0.578      0.578      0.01112   
   1    26   1     0     5     5  0.589      0.589      0.01112   
   1    27   1     0     5     5  0.600      0.600      0.01112   
   1    28   1     0     4     4  0.611      0.611      0.01112   
   1    29   1     0     4     4  0.622      0.622      0.01112   
   1    30   1     0     4     4  0.639      0.639      0.01669   
   1    31   1     0     4     4  0.664      0.664      0.02503   
   1    32   1     0     4     4  0.701      0.701      0.03754   
   1    33   1U    0     4     4  0.701      0.701      0.05631   
   1    33   2     0     4     4  0.715      0.715      0.01408   
   1    34   1     0     4     4  0.737      0.737      0.02112   
   1    35   1     0     4     4  0.768      0.768      0.03168   
   1    36   1U    0     6     6  0.768      0.768      0.04751   
   1    36   2U    0     4     4  0.768      0.768      0.01188   
   1    36   3     0     4     4  0.771      0.771      0.002970  
   1    37   1     0     2     2  0.776      0.776      0.004454  
   1    38   1     0     3     3  0.782      0.782      0.006682  
   1    39   1     0     5     5  0.792      0.792      0.01002   
   1    40   1     0     4     4  0.802      0.802      0.01002   
   1    41   1     0     4     4  0.812      0.812      0.01002   
   1    42   1     0     4     4  0.827      0.827      0.01503   
   1    43   1     0     6     6  0.850      0.850      0.02255   
   1    44   1     0     4     4  0.873      0.873      0.02255   
   1    45   1     0     4     4  0.895      0.895      0.02255   
   1    46   1U    0     5     5  0.895      0.895      0.03383   
   1    46   2     0     4     4  0.904      0.904      0.008457  
   1    47   1     0     4     4  0.916      0.916      0.01268   
   1    48   1     0     4     4  0.935      0.935      0.01903   
   1    49   1     0     4     4  0.964      0.964      0.02854   
   1    50   1U    0     7     7  0.964      0.964      0.03620   
   1    50   2     0     4     4  0.973      0.973      0.009050  
   1    51   1     0     4     4  0.986      0.986      0.01358   
   1    52   1U    0     5     5  0.986      0.986      0.01358   
   1    52   2     0     4     4  0.990      0.990      0.003394  
   1    53   1     0     4     4  0.995      0.995      0.005091  
   1    54   1     0     2     2  1.00       1.00       0.005091  
                          
 THE ANALYSIS HAS COMPLETED SUCCESSFULLY
