 Abaqus/Standard 2025                  DATE 22-Feb-2026 TIME 21:42:41
 SUMMARY OF JOB INFORMATION:
 STEP  INC ATT SEVERE EQUIL TOTAL  TOTAL      STEP       INC OF       DOF    IF
               DISCON ITERS ITERS  TIME/    TIME/LPF    TIME/LPF    MONITOR RIKS
               ITERS               FREQ
   1     1   1U    0     2     2  0.00       0.00       1.000     
   1     1   2U    0     2     2  0.00       0.00       0.2500    
   1     1   3U    0     4     4  0.00       0.00       0.06250   
   1     1   4     0     9     9  0.0156     0.0156     0.01562   
   1     2   1     0     4     4  0.0312     0.0312     0.01562   
   1     3   1     0     4     4  0.0469     0.0469     0.01562   
   1     4   1     0     5     5  0.0703     0.0703     0.02344   
   1     5   1     0     5     5  0.0938     0.0938     0.02344   
   1     6   1     0     7     7  0.117      0.117      0.02344   
   1     7   1     0     8     8  0.141      0.141      0.02344   
   1     8   1U    0     3     3  0.141      0.141      0.02344   
   1     8   2     0     8     8  0.146      0.146      0.005859  
   1     9   1U    0     6     6  0.146      0.146      0.005859  
   1     9   2     0     5     5  0.148      0.148      0.001465  
   1    10   1     0     4     4  0.149      0.149      0.001465  
   1    11   1     0     6     6  0.151      0.151      0.001465  
   1    12   1     0     7     7  0.152      0.152      0.001465  
   1    13   1U    0     5     5  0.152      0.152      0.001465  
   1    13   2     0     2     2  0.153      0.153      0.0003662 
   1    14   1     0     3     3  0.153      0.153      0.0003662 
   1    15   1     0     8     8  0.154      0.154      0.0005493 
   1    16   1U    0     5     5  0.154      0.154      0.0005493 
   1    16   2     0     2     2  0.154      0.154      0.0001373 
   1    17   1     0     2     2  0.154      0.154      0.0001373 
   1    18   1     0     2     2  0.154      0.154      0.0002060 
   1    19   1U    0     8     8  0.154      0.154      0.0003090 
   1    19   2     0     2     2  0.154      0.154      7.725e-05 
   1    20   1U    0     5     5  0.154      0.154      0.0001159 
   1    20   2     0     2     2  0.154      0.154      2.897e-05 
   1    21   1U    0     5     5  0.154      0.154      4.345e-05 
   1    21   2     0     4     4  0.154      0.154      1.086e-05 
   1    22   1U    0     5     5  0.154      0.154      1.629e-05 
   1    22   2U    0     0     0  0.154      0.154      1.000e-05 
                          
 THE ANALYSIS HAS NOT BEEN COMPLETED
