 Abaqus/Standard 2025                  DATE 22-Feb-2026 TIME 15:38:26
 SUMMARY OF JOB INFORMATION:
 STEP  INC ATT SEVERE EQUIL TOTAL  TOTAL      STEP       INC OF       DOF    IF
               DISCON ITERS ITERS  TIME/    TIME/LPF    TIME/LPF    MONITOR RIKS
               ITERS               FREQ
   1     1   1U    0     2     2  0.00       0.00       1.000     
   1     1   2U    0     2     2  0.00       0.00       0.2500    
   1     1   3U    0     3     3  0.00       0.00       0.06250   
   1     1   4     0    10    10  0.0156     0.0156     0.01562   
   1     2   1     0     7     7  0.0312     0.0312     0.01562   
   1     3   1     0     6     6  0.0469     0.0469     0.01562   
   1     4   1     0     6     6  0.0625     0.0625     0.01562   
   1     5   1     0     4     4  0.0781     0.0781     0.01562   
   1     6   1     0     4     4  0.0938     0.0938     0.01562   
   1     7   1     0     5     5  0.117      0.117      0.02344   
   1     8   1     0     4     4  0.141      0.141      0.02344   
   1     9   1     0     4     4  0.164      0.164      0.02344   
   1    10   1     0     5     5  0.199      0.199      0.03516   
   1    11   1     0     5     5  0.234      0.234      0.03516   
   1    12   1     0     5     5  0.270      0.270      0.03516   
   1    13   1     0     4     4  0.305      0.305      0.03516   
   1    14   1     0     4     4  0.340      0.340      0.03516   
   1    15   1     0     5     5  0.393      0.393      0.05273   
   1    16   1     0     5     5  0.445      0.445      0.05273   
   1    17   1     0     5     5  0.498      0.498      0.05273   
   1    18   1     0     7     7  0.551      0.551      0.05273   
   1    19   1     0     5     5  0.604      0.604      0.05273   
   1    20   1     0     8     8  0.656      0.656      0.05273   
   1    21   1U    0     6     6  0.656      0.656      0.05273   
   1    21   2     0     4     4  0.669      0.669      0.01318   
   1    22   1     0     5     5  0.683      0.683      0.01318   
   1    23   1     0     5     5  0.696      0.696      0.01318   
   1    24   1     0     4     4  0.709      0.709      0.01318   
   1    25   1     0     4     4  0.722      0.722      0.01318   
   1    26   1     0     4     4  0.742      0.742      0.01978   
   1    27   1     0     4     4  0.772      0.772      0.02966   
   1    28   1U    0     6     6  0.772      0.772      0.04449   
   1    28   2     0     4     4  0.783      0.783      0.01112   
   1    29   1     0     4     4  0.799      0.799      0.01669   
   1    30   1     0     6     6  0.824      0.824      0.02503   
   1    31   1     0     4     4  0.849      0.849      0.02503   
   1    32   1     0     4     4  0.875      0.875      0.02503   
   1    33   1U    0     5     5  0.875      0.875      0.03754   
   1    33   2     0     4     4  0.884      0.884      0.009386  
   1    34   1     0     4     4  0.898      0.898      0.01408   
   1    35   1U    0     6     6  0.898      0.898      0.02112   
   1    35   2     0     4     4  0.903      0.903      0.005279  
   1    36   1     0     4     4  0.911      0.911      0.007919  
   1    37   1     0     4     4  0.923      0.923      0.01188   
   1    38   1     0     6     6  0.941      0.941      0.01782   
   1    39   1U    0     5     5  0.941      0.941      0.01782   
   1    39   2     0     2     2  0.945      0.945      0.004454  
   1    40   1     0     3     3  0.950      0.950      0.004454  
   1    41   1     0     2     2  0.956      0.956      0.006682  
   1    42   1     0     4     4  0.966      0.966      0.01002   
   1    43   1U    0     5     5  0.966      0.966      0.01503   
   1    43   2     0     2     2  0.970      0.970      0.003758  
   1    44   1     0     2     2  0.976      0.976      0.005638  
   1    45   1     0     6     6  0.984      0.984      0.008457  
   1    46   1     0     6     6  0.993      0.993      0.008457  
   1    47   1U    0     5     5  0.993      0.993      0.007218  
   1    47   2     0     2     2  0.995      0.995      0.001805  
   1    48   1     0     2     2  0.996      0.996      0.001805  
   1    49   1     0     3     3  0.999      0.999      0.002707  
   1    50   1     0     2     2  1.00       1.00       0.0009023 
                          
 THE ANALYSIS HAS COMPLETED SUCCESSFULLY
