 Abaqus/Standard 2025                  DATE 22-Feb-2026 TIME 15:04:11
 SUMMARY OF JOB INFORMATION:
 STEP  INC ATT SEVERE EQUIL TOTAL  TOTAL      STEP       INC OF       DOF    IF
               DISCON ITERS ITERS  TIME/    TIME/LPF    TIME/LPF    MONITOR RIKS
               ITERS               FREQ
   1     1   1U    0     1     1  0.00       0.00       1.000     
   1     1   2U    0     2     2  0.00       0.00       0.2500    
   1     1   3U    0     2     2  0.00       0.00       0.06250   
   1     1   4U    0     4     4  0.00       0.00       0.01562   
   1     1   5     0     8     8  0.00391    0.00391    0.003906  
   1     2   1     0     3     3  0.00781    0.00781    0.003906  
   1     3   1     0     3     3  0.0117     0.0117     0.003906  
   1     4   1     0     4     4  0.0176     0.0176     0.005859  
   1     5   1     0     5     5  0.0264     0.0264     0.008789  
   1     6   1     0     5     5  0.0352     0.0352     0.008789  
   1     7   1     0     4     4  0.0439     0.0439     0.008789  
   1     8   1     0     4     4  0.0527     0.0527     0.008789  
   1     9   1     0     4     4  0.0659     0.0659     0.01318   
   1    10   1     0     6     6  0.0857     0.0857     0.01978   
   1    11   1     0     5     5  0.105      0.105      0.01978   
   1    12   1     0     4     4  0.125      0.125      0.01978   
   1    13   1     0     4     4  0.145      0.145      0.01978   
   1    14   1     0     5     5  0.175      0.175      0.02966   
   1    15   1     0     5     5  0.204      0.204      0.02966   
   1    16   1     0     4     4  0.234      0.234      0.02966   
   1    17   1     0     4     4  0.264      0.264      0.02966   
   1    18   1     0     5     5  0.308      0.308      0.04449   
   1    19   1     0     5     5  0.353      0.353      0.04449   
   1    20   1     0     5     5  0.397      0.397      0.04449   
   1    21   1     0     6     6  0.442      0.442      0.04449   
   1    22   1     0     6     6  0.486      0.486      0.04449   
   1    23   1     0     7     7  0.531      0.531      0.04449   
   1    24   1     0     8     8  0.575      0.575      0.04449   
   1    25   1     0     8     8  0.620      0.620      0.04449   
   1    26   1     0     8     8  0.664      0.664      0.04449   
   1    27   1U    0     7     7  0.664      0.664      0.04449   
   1    27   2     0     4     4  0.675      0.675      0.01112   
   1    28   1     0     5     5  0.686      0.686      0.01112   
   1    29   1     0     4     4  0.697      0.697      0.01112   
   1    30   1     0     5     5  0.709      0.709      0.01112   
   1    31   1     0     5     5  0.720      0.720      0.01112   
   1    32   1     0     5     5  0.731      0.731      0.01112   
   1    33   1     0     6     6  0.742      0.742      0.01112   
   1    34   1U    0     4     4  0.742      0.742      0.01112   
   1    34   2     0     2     2  0.745      0.745      0.002781  
   1    35   1     0     2     2  0.748      0.748      0.002781  
   1    36   1     0     2     2  0.752      0.752      0.004171  
   1    37   1     0     5     5  0.758      0.758      0.006257  
   1    38   1     0     4     4  0.764      0.764      0.006257  
   1    39   1     0     4     4  0.770      0.770      0.006257  
   1    40   1     0     4     4  0.780      0.780      0.009386  
   1    41   1     0     4     4  0.794      0.794      0.01408   
   1    42   1     0     6     6  0.815      0.815      0.02112   
   1    43   1     0     6     6  0.836      0.836      0.02112   
   1    44   1     0     8     8  0.857      0.857      0.02112   
   1    45   1     0     8     8  0.878      0.878      0.02112   
   1    46   1U    0     4     4  0.878      0.878      0.02112   
   1    46   2     0     4     4  0.884      0.884      0.005279  
   1    47   1     0     4     4  0.889      0.889      0.005279  
   1    48   1     0     4     4  0.897      0.897      0.007919  
   1    49   1     0     6     6  0.909      0.909      0.01188   
   1    50   1     0     8     8  0.921      0.921      0.01188   
   1    51   1U    0     5     5  0.921      0.921      0.01188   
   1    51   2     0     4     4  0.924      0.924      0.002970  
   1    52   1     0     3     3  0.927      0.927      0.002970  
   1    53   1     0     4     4  0.931      0.931      0.004454  
   1    54   1     0     4     4  0.938      0.938      0.006682  
   1    55   1     0     6     6  0.948      0.948      0.01002   
   1    56   1U    0     7     7  0.948      0.948      0.01002   
   1    56   2     0     4     4  0.950      0.950      0.002506  
   1    57   1     0     3     3  0.953      0.953      0.002506  
   1    58   1     0     3     3  0.957      0.957      0.003758  
   1    59   1     0     4     4  0.962      0.962      0.005638  
   1    60   1U    0     5     5  0.962      0.962      0.008457  
   1    60   2     0     4     4  0.964      0.964      0.002114  
   1    61   1     0     3     3  0.967      0.967      0.003171  
   1    62   1     0     4     4  0.972      0.972      0.004757  
   1    63   1U    0     5     5  0.972      0.972      0.007135  
   1    63   2     0     4     4  0.974      0.974      0.001784  
   1    64   1     0     3     3  0.977      0.977      0.002676  
   1    65   1     0     4     4  0.981      0.981      0.004014  
   1    66   1     0     4     4  0.987      0.987      0.006020  
   1    67   1U    0     5     5  0.987      0.987      0.009031  
   1    67   2     0     4     4  0.989      0.989      0.002258  
   1    68   1     0     4     4  0.992      0.992      0.003386  
   1    69   1     0     4     4  0.997      0.997      0.005080  
   1    70   1     0     4     4  1.00       1.00       0.002572  
                          
 THE ANALYSIS HAS COMPLETED SUCCESSFULLY
