1

   Abaqus 2025                                  Date 22-Feb-2026   Time 15:25:10
   For use by UNIVERSITAET STUTTGART under license from Dassault Systemes or its subsidiary.



                         The Abaqus Software is a product of:

                           Dassault Systemes Americas Corp.
                           1301 Atwood Avenue, Suite 101W
                              Johnston, RI 02919, USA
 


                   The Abaqus Software is available only under license
                   from Dassault Systemes or its subsidiary and may be
                   used or reproduced only in accordance with the terms
                   of such license.
 
                          On machine MIB40-GAUSS 
                          you are authorized to run
                          Abaqus/Standard until 31-Mar-2025

                          Your site id is: 200000000017928 


 
                    For assistance or any other information you may
                    obtain contact information for your local office
                    from the world wide web at:

                      https://www.3ds.com/products-services/simulia/services-support/

 
                * * * * * * * * * * * * * * * * * * * * * * * * * * * * * * 
                *                                                         * 
                *                   *****************                     * 
                *                   *  N O T I C E  *                     * 
                *                   *****************                     * 
                *                                                         * 
                *                                                         * 
                *                       Abaqus 2025                       * 
                *                                                         * 
                *       BUILD ID: 2024_09_20-15.00.46 RELr427 198590      * 
                *                                                         * 
                *                                                         * 
                *  Please make sure you are using                         * 
                *  release Abaqus 2025 manuals                            * 
                *  plus the notes accompanying this release.              * 
                *                                                         * 
                *                                                         * 
                *                                                         * 
                *                                                         * 
                *                                                         * 
                *   This program may not be used for commercial purposes  * 
                *           without payment of a commercial fee.          * 
                *                                                         * 
                * * * * * * * * * * * * * * * * * * * * * * * * * * * * * * 


 



     PROCESSING PART, INSTANCE, AND ASSEMBLY INFORMATION
   *******************************************************


     END PROCESSING PART, INSTANCE, AND ASSEMBLY INFORMATION
   ***********************************************************




     OPTIONS BEING PROCESSED
   ***************************


  *Element, type=C3D8R
  *Elset, elset=ASSEMBLY_FINAL_PART-1__PICKEDSET26
  *Elset, elset=ASSEMBLY_FINAL_PART-1__PICKEDSET27
  *Elset, elset=ASSEMBLY__PICKEDSET47
  *Elset, elset=ASSEMBLY___PICKEDSURF45_S2
  *Elset, elset=ASSEMBLY___PICKEDSURF48_S2
  *heading
  *material, name=PLYWOOD_MATERIAL
  *density
  *elastic
  *material, name=TAPE_MATERIAL
  *density
  *elastic
  *solidsection, elset=ASSEMBLY_FINAL_PART-1__PICKEDSET26, material=TAPE_MATERIAL
  *solidsection, elset=ASSEMBLY_FINAL_PART-1__PICKEDSET27, material=PLYWOOD_MATERIAL
  *solidsection, elset=ASSEMBLY_FINAL_PART-1__PICKEDSET26, material=TAPE_MATERIAL
  *solidsection, elset=ASSEMBLY_FINAL_PART-1__PICKEDSET27, material=PLYWOOD_MATERIAL
  *surface, type=ELEMENT, name=ASSEMBLY__PICKEDSURF45
  *surface, type=ELEMENT, name=ASSEMBLY__PICKEDSURF48
  *surface, type=ELEMENT, name=ASSEMBLY__PICKEDSURF45
  *surface, type=ELEMENT, name=ASSEMBLY__PICKEDSURF48
  *boundary
  *boundary
  *surface, type=ELEMENT, name=ASSEMBLY__PICKEDSURF45
  *surface, type=ELEMENT, name=ASSEMBLY__PICKEDSURF48
  *output, field, variable=PRESELECT
  *output, history, variable=PRESELECT
  *output, field, variable=PRESELECT
  *output, history, variable=PRESELECT
  *output, field, variable=PRESELECT
  *output, history, variable=PRESELECT
  
                               E L E M E N T   Q U A L I T Y  C H E C K S        
  
  
 ***NOTES: DISTORTED ISOPARAMETRIC ELEMENTS: ANGLE BETWEEN ISOPARAMETRIC LINES 
           IS LESS THAN 45 DEGREES OR GREATER THAN 135 DEGREES.
  
           TETRAHEDRAL QUALITY MEASURE: VOLUME OF TETRAHEDRON DIVIDED BY THE 
           VOLUME OF EQUILATERAL TETRAHEDRON WITH SAME CIRCUMSPHERE RADIUS; 
           0 FOR DEGENERATE TETRAHEDRON AND 1 FOR EQUILATERIAL TETRAHEDRON. IT 
           IS RECOMMENDED THAT THE TETRAHEDRAL QUALITY MEASURE BE GREATER THAN 
           0.02, THE MIN INTERIOR (DIHEDRAL) ANGLE BE GREATER THAN 10 DEGREES, 
           AND THE MAX INTERIOR (DIHEDRAL) ANGLE BE LESS THAN 160 DEGREES. 
  
           MODIFIED TETRAHEDRAL QUALITY MEASURE: ANGLES BETWEEN THE TWO LINE 
           SEGMENTS ON EACH EDGE; THE EDGES OF MODIFIED TETRAHEDRAL SHOULD BE 
           AS STRAIGHT AS POSSIBLE. IT IS RECOMMENDED THAT THE ANGLE BETWEEN 
           THE TWO LINE SEGMENTS ON EACH EDGE IS BETWEEN 160 AND 180 DEGREES. 
  
           TRIANGULAR QUALITY MEASURE: AREA OF TRIANGLE DIVIDED BY THE AREA OF 
           EQUILATERAL TRIANGLE WITH SAME CIRCUMCIRCLE RADIUS; 0 FOR DEGENERATE 
           TRIANGLE AND 1 FOR EQUILATERAL TRIANGLE. IT IS RECOMMENDED THAT THE
           TRIANGULAR QUALITY MEASURE BE GREATER THAN 0.01, THE MIN INTERIOR 
           ANGLE BE GREATER THAN 10 DEGREES, AND THE MAX INTERIOR ANGLE BE LESS 
           THAN 160 DEGREES. 
  
           NODAL ADJUSTMENTS ARISING FROM CONTACT INTERACTIONS AND/OR TIE 
           CONSTRAINTS CAN CAUSE SEVERE ELEMENT DISTORTION. IT MAY BE NECESSARY 
           TO REMESH IN ORDER TO REDUCE THE AMOUNT OF ADJUSTMENT. 

 ***WARNING: 323 elements are distorted. Either the isoparametric angles are 
             out of the suggested limits or the triangular or tetrahedral 
             quality measure is bad. The elements have been identified in 
             element set WarnElemDistorted.
  
 --------------------------------------------------------------------------------
 Distorted isoparametric elements
  
        Element          Min/max angle   Adjusted nodes 
 ---------------------- ---------------- -------------- 
       FINAL_PART-1.275          33.3153       NO       
       FINAL_PART-1.276          34.7136       NO       
       FINAL_PART-1.277          36.2179       NO       
       FINAL_PART-1.278          37.8385       NO       
       FINAL_PART-1.279          39.5863       NO       
       FINAL_PART-1.280          41.4733       NO       
       FINAL_PART-1.281          43.5122       NO       
       FINAL_PART-1.295          33.8017       NO       
       FINAL_PART-1.296          35.2097       NO       
       FINAL_PART-1.297          36.7229       NO       
       FINAL_PART-1.298          38.3514       NO       
       FINAL_PART-1.299          40.1056       NO       
       FINAL_PART-1.300          41.9981       NO       
       FINAL_PART-1.301          44.0405       NO       
       FINAL_PART-1.328          43.5122       NO       
       FINAL_PART-1.329          41.4733       NO       
       FINAL_PART-1.330          39.5863       NO       
       FINAL_PART-1.331          37.8385       NO       
       FINAL_PART-1.332           36.218       NO       
       FINAL_PART-1.333          34.7136       NO       
       FINAL_PART-1.334          33.3153       NO       
       FINAL_PART-1.348          44.0405       NO       
       FINAL_PART-1.349          41.9981       NO       
       FINAL_PART-1.350          40.1056       NO       
       FINAL_PART-1.351          38.3515       NO       
       FINAL_PART-1.352          36.7229       NO       
       FINAL_PART-1.353          35.2097       NO       
       FINAL_PART-1.354          33.8017       NO       
       FINAL_PART-1.402          41.6933       NO       
       FINAL_PART-1.404          42.7331       NO       
       FINAL_PART-1.405          43.8411       NO       
       FINAL_PART-1.446          44.2554       NO       
       FINAL_PART-1.449          39.9423       NO       
       FINAL_PART-1.560          42.7407       NO       
       FINAL_PART-1.756          41.2943       NO       
       FINAL_PART-1.765          43.0077       NO       
      FINAL_PART-1.2115          42.7684       NO       
      FINAL_PART-1.2116          41.3522       NO       
      FINAL_PART-1.2118          39.9825       NO       
      FINAL_PART-1.2141          41.6786       NO       
      FINAL_PART-1.2166          42.7526       NO       
      FINAL_PART-1.2303          44.2832       NO       
      FINAL_PART-1.2454          43.8968       NO       
      FINAL_PART-1.2498          43.0077       NO       
      FINAL_PART-1.3839          43.4271       NO       
      FINAL_PART-1.3841          39.7391       NO       
      FINAL_PART-1.3842          38.0346       NO       
      FINAL_PART-1.3880          35.2389       NO       
      FINAL_PART-1.3910          41.5419       NO       
      FINAL_PART-1.4009          36.5137       NO       
      FINAL_PART-1.4030          43.8863       NO       
      FINAL_PART-1.4706          35.5819       NO       
      FINAL_PART-1.4718          37.1921       NO       
      FINAL_PART-1.4719          41.9555       NO       
      FINAL_PART-1.4720          43.5605       NO       
      FINAL_PART-1.4777          34.8703       NO       
      FINAL_PART-1.4870           41.037       NO       
      FINAL_PART-1.4890          43.8862       NO       
      FINAL_PART-1.5563          44.0847       NO       
      FINAL_PART-1.5564          42.4027       NO       
      FINAL_PART-1.5565          40.8222       NO       
      FINAL_PART-1.5566          39.3364       NO       
      FINAL_PART-1.5567          37.9393       NO       
      FINAL_PART-1.5568          36.6242       NO       
      FINAL_PART-1.5569          35.3856       NO       
      FINAL_PART-1.5570          34.2179       NO       
      FINAL_PART-1.5571          33.1167       NO       
      FINAL_PART-1.5572          32.0769       NO       
      FINAL_PART-1.5595          43.8348       NO       
      FINAL_PART-1.5596          42.5918       NO       
      FINAL_PART-1.5597          41.4048       NO       
      FINAL_PART-1.5598          40.2705       NO       
      FINAL_PART-1.5703          44.3732       NO       
      FINAL_PART-1.5843          43.5956       NO       
      FINAL_PART-1.7955          41.4349       NO       
      FINAL_PART-1.7956          43.7967       NO       
      FINAL_PART-1.8037          43.5791       NO       
      FINAL_PART-1.8054          44.4472       NO       
      FINAL_PART-1.8199           40.373       NO       
      FINAL_PART-1.8302          42.5513       NO       
      FINAL_PART-1.8475          42.2155       NO       
     FINAL_PART-1.10235          39.8837       NO       
     FINAL_PART-1.10236          41.0148       NO       
     FINAL_PART-1.10237          42.1998       NO       
     FINAL_PART-1.10238           43.442       NO       
     FINAL_PART-1.10239          44.7438       NO       
     FINAL_PART-1.10261          40.2705       NO       
     FINAL_PART-1.10262          41.4048       NO       
     FINAL_PART-1.10263          42.5918       NO       
     FINAL_PART-1.10264          43.8348       NO       
     FINAL_PART-1.10311          43.7685       NO       
     FINAL_PART-1.10312          42.5257       NO       
     FINAL_PART-1.10313          41.3384       NO       
     FINAL_PART-1.10314          40.2046       NO       
     FINAL_PART-1.10315          39.1218       NO       
     FINAL_PART-1.10316           38.087       NO       
     FINAL_PART-1.10317          37.0982       NO       
     FINAL_PART-1.10318          36.1524       NO       
     FINAL_PART-1.10319          35.2469       NO       
     FINAL_PART-1.10320          34.3805       NO       
     FINAL_PART-1.10321          33.5509       NO       
     FINAL_PART-1.10322          32.7557       NO       
     FINAL_PART-1.10323          31.9939       NO       
     FINAL_PART-1.10353          44.5441       NO       
     FINAL_PART-1.10354          43.5895       NO       
     FINAL_PART-1.10355          42.6677       NO       
     FINAL_PART-1.10356          41.7768       NO       
     FINAL_PART-1.10357          40.9155       NO       
     FINAL_PART-1.10358          40.0828       NO       
     FINAL_PART-1.10363          31.9939       NO       
     FINAL_PART-1.10364          32.7557       NO       
     FINAL_PART-1.10365          33.5509       NO       
     FINAL_PART-1.10366          34.3805       NO       
     FINAL_PART-1.10367          35.2469       NO       
     FINAL_PART-1.10368          36.1523       NO       
     FINAL_PART-1.10369          37.0982       NO       
     FINAL_PART-1.10370           38.087       NO       
     FINAL_PART-1.10371          39.1217       NO       
     FINAL_PART-1.10372          40.2045       NO       
     FINAL_PART-1.10373          41.3384       NO       
     FINAL_PART-1.10374          42.5257       NO       
     FINAL_PART-1.10375          43.7684       NO       
     FINAL_PART-1.10398          40.0828       NO       
     FINAL_PART-1.10399          40.9155       NO       
     FINAL_PART-1.10400          41.7768       NO       
     FINAL_PART-1.10401          42.6677       NO       
     FINAL_PART-1.10402          43.5895       NO       
     FINAL_PART-1.10403           44.544       NO       
     FINAL_PART-1.10434          40.7193       NO       
     FINAL_PART-1.10441          41.5412       NO       
     FINAL_PART-1.10442          42.3912       NO       
     FINAL_PART-1.10443          43.2575       NO       
     FINAL_PART-1.10548          42.6177       NO       
     FINAL_PART-1.10549          41.4993       NO       
     FINAL_PART-1.10582          44.4332       NO       
     FINAL_PART-1.10583          43.8091       NO       
     FINAL_PART-1.10905          39.9227       NO       
     FINAL_PART-1.10906          44.1522       NO       
     FINAL_PART-1.10920          42.0501       NO       
     FINAL_PART-1.10921          43.2035       NO       
     FINAL_PART-1.10951          39.1639       NO       
     FINAL_PART-1.11644          42.2126       NO       
     FINAL_PART-1.11689          44.9546       NO       
     FINAL_PART-1.15527          43.2214       NO       
     FINAL_PART-1.15528          40.6947       NO       
     FINAL_PART-1.15530          41.5033       NO       
     FINAL_PART-1.15582          43.8568       NO       
     FINAL_PART-1.15601           42.054       NO       
     FINAL_PART-1.15602          43.2391       NO       
     FINAL_PART-1.15937          44.1467       NO       
     FINAL_PART-1.15939          42.3437       NO       
     FINAL_PART-1.15940          39.9187       NO       
     FINAL_PART-1.15941          39.1884       NO       
     FINAL_PART-1.15954          41.4958       NO       
     FINAL_PART-1.15964          44.4678       NO       
     FINAL_PART-1.15965          42.6401       NO       
     FINAL_PART-1.16661          42.2126       NO       
     FINAL_PART-1.16706          44.9546       NO       
     FINAL_PART-1.20449          31.9336       NO       
     FINAL_PART-1.20450          32.4953       NO       
     FINAL_PART-1.20451          33.0752       NO       
     FINAL_PART-1.20452          33.6736       NO       
     FINAL_PART-1.20453          34.2909       NO       
     FINAL_PART-1.20454          34.9286       NO       
     FINAL_PART-1.20455          35.5874       NO       
     FINAL_PART-1.20456          36.2679       NO       
     FINAL_PART-1.20457          36.9715       NO       
     FINAL_PART-1.20458          37.6985       NO       
     FINAL_PART-1.20459          38.4499       NO       
     FINAL_PART-1.20460          39.2274       NO       
     FINAL_PART-1.20461          40.0316       NO       
     FINAL_PART-1.20462          40.8638       NO       
     FINAL_PART-1.20463          41.7253       NO       
     FINAL_PART-1.20464          42.6157       NO       
     FINAL_PART-1.20465           43.538       NO       
     FINAL_PART-1.20466          44.4927       NO       
     FINAL_PART-1.20496          39.9446       NO       
     FINAL_PART-1.20497          40.5591       NO       
     FINAL_PART-1.20498          41.1894       NO       
     FINAL_PART-1.20499          41.8356       NO       
     FINAL_PART-1.20500          42.4983       NO       
     FINAL_PART-1.20501          43.1784       NO       
     FINAL_PART-1.20502          43.8763       NO       
     FINAL_PART-1.20503          44.5926       NO       
     FINAL_PART-1.20592          43.9399       NO       
     FINAL_PART-1.20593          43.6928       NO       
     FINAL_PART-1.20594          41.4847       NO       
     FINAL_PART-1.20611          42.4259       NO       
     FINAL_PART-1.20728          44.2987       NO       
     FINAL_PART-1.20732          43.8831       NO       
     FINAL_PART-1.21077          40.8783       NO       
     FINAL_PART-1.21220           44.516       NO       
     FINAL_PART-1.21236          43.5423       NO       
     FINAL_PART-1.21246          43.4922       NO       
     FINAL_PART-1.21260          44.7269       NO       
     FINAL_PART-1.22280          42.4221       NO       
     FINAL_PART-1.22341          44.8329       NO       
     FINAL_PART-1.27954          43.8883       NO       
     FINAL_PART-1.27955          43.4792       NO       
     FINAL_PART-1.27985          44.3141       NO       
     FINAL_PART-1.28452          44.7507       NO       
     FINAL_PART-1.29535          44.8329       NO       
     FINAL_PART-1.34968          44.3711       NO       
     FINAL_PART-1.34969          43.6553       NO       
     FINAL_PART-1.34970          42.9577       NO       
     FINAL_PART-1.34971          42.2778       NO       
     FINAL_PART-1.34972          41.6156       NO       
     FINAL_PART-1.34973          40.9699       NO       
     FINAL_PART-1.34974          40.3405       NO       
     FINAL_PART-1.34975          39.7271       NO       
     FINAL_PART-1.35015          44.5926       NO       
     FINAL_PART-1.35016          43.8763       NO       
     FINAL_PART-1.35017          43.1784       NO       
     FINAL_PART-1.35018          42.4983       NO       
     FINAL_PART-1.35019          41.8356       NO       
     FINAL_PART-1.35020          41.1894       NO       
     FINAL_PART-1.35021          40.5591       NO       
     FINAL_PART-1.35022          39.9446       NO       
     FINAL_PART-1.35063          44.2844       NO       
     FINAL_PART-1.35064          43.5504       NO       
     FINAL_PART-1.35065          42.8357       NO       
     FINAL_PART-1.35066          42.1395       NO       
     FINAL_PART-1.35067          41.4616       NO       
     FINAL_PART-1.35068          40.8016       NO       
     FINAL_PART-1.35069          40.1585       NO       
     FINAL_PART-1.35070          39.5321       NO       
     FINAL_PART-1.35071          38.9219       NO       
     FINAL_PART-1.35072          38.3274       NO       
     FINAL_PART-1.35073          37.7481       NO       
     FINAL_PART-1.35074          37.1836       NO       
     FINAL_PART-1.35075          36.6333       NO       
     FINAL_PART-1.35076          36.0969       NO       
     FINAL_PART-1.35077          35.5739       NO       
     FINAL_PART-1.35078           35.064       NO       
     FINAL_PART-1.35079          34.5667       NO       
     FINAL_PART-1.35080          34.0815       NO       
     FINAL_PART-1.35081          33.6082       NO       
     FINAL_PART-1.35082          33.1464       NO       
     FINAL_PART-1.35083          32.6958       NO       
     FINAL_PART-1.35084          32.2559       NO       
     FINAL_PART-1.35085          31.8264       NO       
     FINAL_PART-1.35086           31.407       NO       
     FINAL_PART-1.35137          44.9187       NO       
     FINAL_PART-1.35138          44.3571       NO       
     FINAL_PART-1.35139          43.8064       NO       
     FINAL_PART-1.35140          43.2664       NO       
     FINAL_PART-1.35141          42.7372       NO       
     FINAL_PART-1.35142          42.2184       NO       
     FINAL_PART-1.35143          41.7098       NO       
     FINAL_PART-1.35144           41.211       NO       
     FINAL_PART-1.35145          40.7218       NO       
     FINAL_PART-1.35146          40.2423       NO       
     FINAL_PART-1.35147          39.7722       NO       
     FINAL_PART-1.35148          39.3109       NO       
     FINAL_PART-1.35204          31.6981       NO       
     FINAL_PART-1.35205          35.6545       NO       
     FINAL_PART-1.35206          36.0443       NO       
     FINAL_PART-1.35240          33.6856       NO       
     FINAL_PART-1.35241          32.9408       NO       
     FINAL_PART-1.35255          37.6403       NO       
     FINAL_PART-1.35265          38.2257       NO       
     FINAL_PART-1.35266          39.4266       NO       
     FINAL_PART-1.35315          40.0422       NO       
     FINAL_PART-1.35324          41.9385       NO       
     FINAL_PART-1.35334          43.2596       NO       
     FINAL_PART-1.35341          44.6333       NO       
     FINAL_PART-1.35342          43.9424       NO       
     FINAL_PART-1.35996          31.5492       NO       
     FINAL_PART-1.35999          32.4573       NO       
     FINAL_PART-1.36695          31.1062       NO       
     FINAL_PART-1.36696          32.0051       NO       
     FINAL_PART-1.36697          34.9781       NO       
     FINAL_PART-1.36698          31.3145       NO       
     FINAL_PART-1.36699          37.0711       NO       
     FINAL_PART-1.36700          38.8221       NO       
     FINAL_PART-1.36701          41.2947       NO       
     FINAL_PART-1.36702           42.595       NO       
     FINAL_PART-1.36791          30.6734       NO       
     FINAL_PART-1.37101          36.5321       NO       
     FINAL_PART-1.37104          40.6633       NO       
     FINAL_PART-1.39500           41.618       NO       
     FINAL_PART-1.53056           44.745       NO       
     FINAL_PART-1.53057          44.1544       NO       
     FINAL_PART-1.53059          42.9982       NO       
     FINAL_PART-1.53060          42.4327       NO       
     FINAL_PART-1.53065          41.8666       NO       
     FINAL_PART-1.53067          41.8167       NO       
     FINAL_PART-1.53068          40.1625       NO       
     FINAL_PART-1.53075          39.3885       NO       
     FINAL_PART-1.53082          37.2521       NO       
     FINAL_PART-1.53083          36.3073       NO       
     FINAL_PART-1.54423          41.0839       NO       
     FINAL_PART-1.54434          43.5701       NO       
     FINAL_PART-1.54435          38.7566       NO       
     FINAL_PART-1.54436          36.7743       NO       
     FINAL_PART-1.54437          35.8589       NO       
     FINAL_PART-1.54835          41.3151       NO       
     FINAL_PART-1.54836          38.2278       NO       
     FINAL_PART-1.54837          37.7321       NO       
     FINAL_PART-1.70825          39.1489       NO       
     FINAL_PART-1.70826          39.6095       NO       
     FINAL_PART-1.70827          40.0793       NO       
     FINAL_PART-1.70828          40.5584       NO       
     FINAL_PART-1.70829           41.047       NO       
     FINAL_PART-1.70830          41.5453       NO       
     FINAL_PART-1.70831          42.0537       NO       
     FINAL_PART-1.70832          42.5724       NO       
     FINAL_PART-1.70833          43.1015       NO       
     FINAL_PART-1.70834          43.6411       NO       
     FINAL_PART-1.70835          44.1916       NO       
     FINAL_PART-1.70836          44.7533       NO       
     FINAL_PART-1.70887          39.3109       NO       
     FINAL_PART-1.70888          39.7722       NO       
     FINAL_PART-1.70889          40.2423       NO       
     FINAL_PART-1.70890          40.7218       NO       
     FINAL_PART-1.70891           41.211       NO       
     FINAL_PART-1.70892          41.7097       NO       
     FINAL_PART-1.70893          42.2184       NO       
     FINAL_PART-1.70894          42.7372       NO       
     FINAL_PART-1.70895          43.2664       NO       
     FINAL_PART-1.70896          43.8064       NO       
     FINAL_PART-1.70897          44.3571       NO       
     FINAL_PART-1.70898          44.9186       NO       
  
  
  *step, name=Step-1, nlgeom=YES
  *step, name=Step-1, nlgeom=YES
  *output, field, variable=PRESELECT
  *output, history, variable=PRESELECT
  *step, name=Step-1, nlgeom=YES
  *step, name=Step-1, nlgeom=YES
  *static
  *boundary
  *dsload
  *dsload
  *output, field, variable=PRESELECT
  *output, history, variable=PRESELECT
  *endstep
  *step, name=Step-1, nlgeom=YES
  *static
  *boundary
  *endstep

     - (RAMP) OR (STEP) - INDICATE USE OF DEFAULT AMPLITUDES ASSOCIATED WITH THE STEP

     - (RAMP) OR (STEP) - INDICATE USE OF DEFAULT AMPLITUDES ASSOCIATED WITH THE STEP



                            P R O B L E M   S I Z E


          NUMBER OF ELEMENTS IS                                 70948
          NUMBER OF NODES IS                                    95840
          NUMBER OF NODES DEFINED BY THE USER                   95840
          TOTAL NUMBER OF VARIABLES IN THE MODEL               287520
          (DEGREES OF FREEDOM PLUS MAX NO. OF ANY LAGRANGE MULTIPLIER
           VARIABLES. INCLUDE *PRINT,SOLVE=YES TO GET THE ACTUAL NUMBER.)



                              END OF USER INPUT PROCESSING



     JOB TIME SUMMARY
       USER TIME (SEC)      =      11.    
       SYSTEM TIME (SEC)    =      1.7    
       TOTAL CPU TIME (SEC) =      13.    
       WALLCLOCK TIME (SEC) =            3
1

   Abaqus 2025                                  Date 22-Feb-2026   Time 15:25:19
   For use by UNIVERSITAET STUTTGART under license from Dassault Systemes or its subsidiary.

                                                                                               STEP    1  INCREMENT    1
                                                                                          TIME COMPLETED IN THIS STEP   0.00    


                        S T E P       1     S T A T I C   A N A L Y S I S


                                                                                          

     AUTOMATIC TIME CONTROL WITH -
          A SUGGESTED INITIAL TIME INCREMENT OF                 1.00    
          AND A TOTAL TIME PERIOD OF                            1.00    
          THE MINIMUM TIME INCREMENT ALLOWED IS                1.000E-05
          THE MAXIMUM TIME INCREMENT ALLOWED IS                 1.00    

     LINEAR EQUATION SOLVER TYPE         DIRECT SPARSE

          LARGE DISPLACEMENT THEORY WILL BE USED
  
                   M E M O R Y   E S T I M A T E
  
 PROCESS      FLOATING PT       MINIMUM MEMORY        MEMORY TO
              OPERATIONS           REQUIRED          MINIMIZE I/O
             PER ITERATION           (MB)               (MB)
  
     1          4.45E+10              191               1095
  
 NOTE:
      (1) SINCE ABAQUS DOES NOT PRE-ALLOCATE MEMORY AND ONLY ALLOCATES MEMORY AS NEEDED DURING THE ANALYSIS,
          THE MEMORY REQUIREMENT PRINTED HERE CAN ONLY BE VIEWED AS A GENERAL GUIDELINE BASED ON THE BEST
          KNOWLEDGE AVAILABLE AT THE BEGINNING OF A STEP BEFORE THE SOLUTION PROCESS HAS BEGUN.
      (2) THE ESTIMATE IS NORMALLY UPDATED AT THE BEGINNING OF EVERY STEP. IT IS THE MAXIMUM VALUE OF THE
          ESTIMATE FROM THE CURRENT STEP TO THE LAST STEP OF THE ANALYSIS, WITH UNSYMMETRIC SOLUTION TAKEN
          INTO ACCOUNT IF APPLICABLE. 
      (3) SINCE THE ESTIMATE IS BASED ON THE ACTIVE DEGREES OF FREEDOM IN THE FIRST ITERATION OF THE 
          CURRENT STEP, THE MEMORY ESTIMATE MIGHT BE SIGNIFICANTLY DIFFERENT THAN ACTUAL USAGE FOR 
          PROBLEMS WITH SUBSTANTIAL CHANGES IN ACTIVE DEGREES OF FREEDOM BETWEEN STEPS (OR EVEN WITHIN
          THE SAME STEP). EXAMPLES ARE: PROBLEMS WITH SIGNIFICANT CONTACT CHANGES, PROBLEMS WITH MODEL
          CHANGE, PROBLEMS WITH BOTH STATIC STEP AND STEADY STATE DYNAMIC PROCEDURES WHERE ACOUSTIC 
          ELEMENTS WILL ONLY BE ACTIVATED IN THE STEADY STATE DYNAMIC STEPS.
      (4) FOR MULTI-PROCESS EXECUTION, THE ESTIMATED VALUE OF FLOATING POINT OPERATIONS FOR EACH PROCESS
          IS BASED ON AN INITIAL SCHEDULING OF OPERATIONS AND MIGHT NOT REFLECT THE ACTUAL FLOATING 
          POINT OPERATIONS COMPLETED ON EACH PROCESS. OPERATIONS ARE DYNAMICALLY BALANCED DURING EXECUTION, 
          SO THE ACTUAL BALANCE OF OPERATIONS BETWEEN PROCESSES IS EXPECTED TO BE BETTER THAN THE ESTIMATE
          PRINTED HERE.
      (5) THE UPPER LIMIT OF MEMORY THAT CAN BE ALLOCATED BY ABAQUS WILL IN GENERAL DEPEND ON THE VALUE OF
          THE "MEMORY" PARAMETER AND THE AMOUNT OF PHYSICAL MEMORY AVAILABLE ON THE MACHINE. PLEASE SEE
          THE "ABAQUS ANALYSIS USER'S MANUAL" FOR MORE DETAILS. THE ACTUAL USAGE OF MEMORY AND OF DISK
          SPACE FOR SCRATCH DATA WILL DEPEND ON THIS UPPER LIMIT AS WELL AS THE MEMORY REQUIRED TO MINIMIZE
          I/O. IF THE MEMORY UPPER LIMIT IS GREATER THAN THE MEMORY REQUIRED TO MINIMIZE I/O, THEN THE ACTUAL
          MEMORY USAGE WILL BE CLOSE TO THE ESTIMATED "MEMORY TO MINIMIZE I/O" VALUE, AND THE SCRATCH DISK
          USAGE WILL BE CLOSE-TO-ZERO; OTHERWISE, THE ACTUAL MEMORY USED WILL BE CLOSE TO THE PREVIOUSLY
          MENTIONED MEMORY LIMIT, AND THE SCRATCH DISK USAGE WILL BE ROUGHLY PROPORTIONAL TO THE DIFFERENCE
          BETWEEN THE ESTIMATED "MEMORY TO MINIMIZE I/O" AND THE MEMORY UPPER LIMIT. HOWEVER ACCURATE
          ESTIMATE OF THE SCRATCH DISK SPACE IS NOT POSSIBLE.
      (6) USING "*RESTART, WRITE" CAN GENERATE A LARGE AMOUNT OF DATA WRITTEN IN THE WORK DIRECTORY.


          THE ANALYSIS HAS BEEN COMPLETED



                              ANALYSIS COMPLETE
                              WITH      1 WARNING MESSAGES ON THE DAT FILE
                              AND      32 WARNING MESSAGES ON THE MSG FILE
                                       29 WARNINGS ARE FOR NEGATIVE EIGENVALUES



     JOB TIME SUMMARY
       USER TIME (SEC)      =     3.86E+03
       SYSTEM TIME (SEC)    =     2.88E+02
       TOTAL CPU TIME (SEC) =     4.15E+03
       WALLCLOCK TIME (SEC) =         1144
