1

   Abaqus 2025                                  Date 22-Feb-2026   Time 03:39:37
   For use by UNIVERSITAET STUTTGART under license from Dassault Systemes or its subsidiary.

                                                                                 
                                                                                 
 STEP    1     INCREMENT     1     STEP TIME    0.00    


                        S T E P       1     S T A T I C   A N A L Y S I S


                                                                                          

     AUTOMATIC TIME CONTROL WITH -
          A SUGGESTED INITIAL TIME INCREMENT OF                 1.00    
          AND A TOTAL TIME PERIOD OF                            1.00    
          THE MINIMUM TIME INCREMENT ALLOWED IS                1.000E-05
          THE MAXIMUM TIME INCREMENT ALLOWED IS                 1.00    

     LINEAR EQUATION SOLVER TYPE         DIRECT SPARSE

 CONVERGENCE TOLERANCE PARAMETERS FOR FORCE    
     CRITERION FOR RESIDUAL FORCE     FOR A NONLINEAR PROBLEM          5.000E-03
     CRITERION FOR DISP.    CORRECTION IN A NONLINEAR PROBLEM          1.000E-02
     INITIAL VALUE OF TIME AVERAGE FORCE                               1.000E-02
     AVERAGE FORCE     IS TIME AVERAGE FORCE    
     ALTERNATE CRIT. FOR RESIDUAL FORCE     FOR A NONLINEAR PROBLEM    2.000E-02
     CRITERION FOR ZERO FORCE     RELATIVE TO TIME AVRG. FORCE         1.000E-05
     CRITERION FOR RESIDUAL FORCE     WHEN THERE IS ZERO FLUX          1.000E-05
     CRITERION FOR DISP.    CORRECTION WHEN THERE IS ZERO FLUX         1.000E-03
     CRITERION FOR RESIDUAL FORCE     FOR A LINEAR INCREMENT           1.000E-08
     FIELD CONVERSION RATIO                                             1.00    
     CRITERION FOR ZERO FORCE     REL. TO TIME AVRG. MAX. FORCE        1.000E-05
     CRITERION FOR ZERO DISP.    RELATIVE TO CHARACTERISTIC LENGTH     1.000E-08

     VOLUMETRIC STRAIN COMPATIBILITY TOLERANCE FOR HYBRID SOLIDS       1.000E-05
     AXIAL STRAIN COMPATIBILITY TOLERANCE FOR HYBRID BEAMS             1.000E-05
     TRANS. SHEAR STRAIN COMPATIBILITY TOLERANCE FOR HYBRID BEAMS      1.000E-05
     SOFT CONTACT CONSTRAINT COMPATIBILITY TOLERANCE FOR P>P0          5.000E-03
     SOFT CONTACT CONSTRAINT COMPATIBILITY TOLERANCE FOR P=0.0         0.100    
     CONTACT FORCE ERROR TOLERANCE FOR CONVERT SDI=YES                 1.00    
     DISPLACEMENT COMPATIBILITY TOLERANCE FOR DCOUP ELEMENTS           1.000E-05
     ROTATION COMPATIBILITY TOLERANCE FOR DCOUP ELEMENTS               1.000E-05

 EQUILIBRIUM WILL BE CHECKED FOR SEVERE DISCONTINUITY ITERATIONS

 TIME INCREMENTATION CONTROL PARAMETERS:
     FIRST EQUILIBRIUM ITERATION FOR CONSECUTIVE DIVERGENCE CHECK              4
     EQUILIBRIUM ITERATION AT WHICH LOG. CONVERGENCE RATE CHECK BEGINS         8
     EQUILIBRIUM ITERATION AFTER WHICH ALTERNATE RESIDUAL IS USED              9
     MAXIMUM EQUILIBRIUM ITERATIONS ALLOWED                                   16
     EQUILIBRIUM ITERATION COUNT FOR CUT-BACK IN NEXT INCREMENT               10
     MAXIMUM EQUILIB. ITERS IN TWO INCREMENTS FOR TIME INCREMENT INCREASE      4
     MAXIMUM ITERATIONS FOR SEVERE DISCONTINUITIES                            50
     MAXIMUM ATTEMPTS ALLOWED IN AN INCREMENT                                  5
     MAXIMUM DISCON. ITERS IN TWO INCREMENTS FOR TIME INCREMENT INCREASE      50
     MAXIMUM CONTACT AUGMENTATIONS FOR *SURFACE BEHAVIOR,AUGMENTED LAGRANGE   50
     CUT-BACK FACTOR AFTER DIVERGENCE                                 0.2500    
     CUT-BACK FACTOR FOR TOO SLOW CONVERGENCE                         0.5000    
     CUT-BACK FACTOR AFTER TOO MANY EQUILIBRIUM ITERATIONS            0.7500    
     CUT-BACK FACTOR AFTER TOO MANY SEVERE DISCONTINUITY ITERATIONS   0.2500    
     CUT-BACK FACTOR AFTER PROBLEMS IN ELEMENT ASSEMBLY               0.2500    
     INCREASE FACTOR AFTER TWO INCREMENTS THAT CONVERGE QUICKLY        1.500    
     MAX. TIME INCREMENT INCREASE FACTOR ALLOWED                       1.500    
     MAX. TIME INCREMENT INCREASE FACTOR ALLOWED (DYNAMICS)            1.250    
     MAX. TIME INCREMENT INCREASE FACTOR ALLOWED (DIFFUSION)           2.000    
     MINIMUM TIME INCREMENT RATIO FOR EXTRAPOLATION TO OCCUR          0.1000    
     MAX. RATIO OF TIME INCREMENT TO STABILITY LIMIT                   1.000    
     FRACTION OF STABILITY LIMIT FOR NEW TIME INCREMENT               0.9500    
     TIME INCREMENT INCREASE FACTOR BEFORE A TIME POINT                1.000    
     GLOBAL STABILIZATION CONTROL IS NOT USED

          PRINT OF INCREMENT NUMBER, TIME, ETC., EVERY    1  INCREMENTS

     THE MAXIMUM NUMBER OF INCREMENTS IN THIS STEP IS                     100

          LARGE DISPLACEMENT THEORY WILL BE USED

     LINEAR EXTRAPOLATION WILL BE USED

     CHARACTERISTIC ELEMENT LENGTH     8.255E-04

     DETAILS REGARDING ACTUAL SOLUTION WAVEFRONT REQUESTED

     DETAILED OUTPUT OF DIAGNOSTICS TO DATABASE REQUESTED

     PRINT OF INCREMENT NUMBER, TIME, ETC., TO THE MESSAGE FILE EVERY     1  INCREMENTS

     COLLECTING MODEL CONSTRAINT INFORMATION FOR OVERCONSTRAINT CHECKS

     COLLECTING STEP CONSTRAINT INFORMATION FOR OVERCONSTRAINT CHECKS


  INCREMENT     1 STARTS. ATTEMPT NUMBER  1, TIME INCREMENT   1.00    
 
	SYMMETRIC PURE THREAD-BASED DIRECT SPARSE SOLVER RUNNING ON
 	1 HOST x 1 MPI RANK PER HOST x 1 THREAD PER RANK
        NUMBER OF EQUATIONS:  87720
        NUMBER OF RHS:        1
        NUMBER OF FLOPS:      5.701e+09
        SOLVER ELAPSED TIME:  235ms

               CONVERGENCE CHECKS FOR EQUILIBRIUM ITERATION     1


 AVERAGE FORCE                      1.962E+04   TIME AVG. FORCE       1.962E+04
 LARGEST SCALED RESIDUAL FORCE     -3.305E+05   AT NODE      16680   DOF  2
   INSTANCE: FINAL_PART-1                                                                    
  CORRESPONDING RESIDUAL FORCE     -3.305E+05
 LARGEST INCREMENT OF DISP.        -0.456       AT NODE       4570   DOF  3
   INSTANCE: FINAL_PART-1                                                                    
 LARGEST CORRECTION TO DISP.       -0.456       AT NODE       4570   DOF  3
   INSTANCE: FINAL_PART-1                                                                    
          FORCE     EQUILIBRIUM NOT ACHIEVED WITHIN TOLERANCE.
 
	SYMMETRIC PURE THREAD-BASED DIRECT SPARSE SOLVER RUNNING ON
 	1 HOST x 1 MPI RANK PER HOST x 1 THREAD PER RANK
        NUMBER OF EQUATIONS:  87720
        NUMBER OF RHS:        1
        NUMBER OF FLOPS:      5.701e+09
        SOLVER ELAPSED TIME:  237ms
 

 ***WARNING: THE SYSTEM MATRIX HAS 44205 NEGATIVE EIGENVALUES.

     NEGATIVE EIGENVALUES MEAN THAT THE SYSTEM MATRIX IS NOT 
     POSITIVE DEFINITE:
     FOR EXAMPLE, A BIFURCATION (BUCKLING) LOAD MAY HAVE BEEN EXCEEDED.
   ELEMENT FINAL_PART-1.1 IS DISTORTING EXCESSIVELY.
   ELEMENT FINAL_PART-1.4 IS DISTORTING EXCESSIVELY.
   ELEMENT FINAL_PART-1.5 IS DISTORTING EXCESSIVELY.
   ELEMENT FINAL_PART-1.6 IS DISTORTING EXCESSIVELY.
   ELEMENT FINAL_PART-1.7 IS DISTORTING EXCESSIVELY.
   ELEMENT FINAL_PART-1.9 IS DISTORTING EXCESSIVELY.
   ELEMENT FINAL_PART-1.10 IS DISTORTING EXCESSIVELY.
   ELEMENT FINAL_PART-1.18 IS DISTORTING EXCESSIVELY.
   ELEMENT FINAL_PART-1.19 IS DISTORTING EXCESSIVELY.
   ELEMENT FINAL_PART-1.20 IS DISTORTING EXCESSIVELY.
   ELEMENT FINAL_PART-1.21 IS DISTORTING EXCESSIVELY.
   ELEMENT FINAL_PART-1.23 IS DISTORTING EXCESSIVELY.
   ELEMENT FINAL_PART-1.25 IS DISTORTING EXCESSIVELY.
   ELEMENT FINAL_PART-1.26 IS DISTORTING EXCESSIVELY.
   ELEMENT FINAL_PART-1.29 IS DISTORTING EXCESSIVELY.
   ELEMENT FINAL_PART-1.30 IS DISTORTING EXCESSIVELY.
   ELEMENT FINAL_PART-1.31 IS DISTORTING EXCESSIVELY.
   ELEMENT FINAL_PART-1.32 IS DISTORTING EXCESSIVELY.
   ELEMENT FINAL_PART-1.33 IS DISTORTING EXCESSIVELY.
   ELEMENT FINAL_PART-1.35 IS DISTORTING EXCESSIVELY.
   ELEMENT FINAL_PART-1.36 IS DISTORTING EXCESSIVELY.
   ELEMENT FINAL_PART-1.37 IS DISTORTING EXCESSIVELY.
   ELEMENT FINAL_PART-1.40 IS DISTORTING EXCESSIVELY.
   ELEMENT FINAL_PART-1.41 IS DISTORTING EXCESSIVELY.
   ELEMENT FINAL_PART-1.44 IS DISTORTING EXCESSIVELY.
   ELEMENT FINAL_PART-1.46 IS DISTORTING EXCESSIVELY.
   ELEMENT FINAL_PART-1.48 IS DISTORTING EXCESSIVELY.
   ELEMENT FINAL_PART-1.49 IS DISTORTING EXCESSIVELY.
   ELEMENT FINAL_PART-1.50 IS DISTORTING EXCESSIVELY.
   ELEMENT FINAL_PART-1.51 IS DISTORTING EXCESSIVELY.
   ELEMENT FINAL_PART-1.52 IS DISTORTING EXCESSIVELY.
   ELEMENT FINAL_PART-1.55 IS DISTORTING EXCESSIVELY.
   ELEMENT FINAL_PART-1.56 IS DISTORTING EXCESSIVELY.
   ELEMENT FINAL_PART-1.57 IS DISTORTING EXCESSIVELY.
   ELEMENT FINAL_PART-1.58 IS DISTORTING EXCESSIVELY.
   ELEMENT FINAL_PART-1.60 IS DISTORTING EXCESSIVELY.
   ELEMENT FINAL_PART-1.61 IS DISTORTING EXCESSIVELY.
   ELEMENT FINAL_PART-1.62 IS DISTORTING EXCESSIVELY.
   ELEMENT FINAL_PART-1.63 IS DISTORTING EXCESSIVELY.
   ELEMENT FINAL_PART-1.64 IS DISTORTING EXCESSIVELY.
   ELEMENT FINAL_PART-1.66 IS DISTORTING EXCESSIVELY.
   ELEMENT FINAL_PART-1.68 IS DISTORTING EXCESSIVELY.
   ELEMENT FINAL_PART-1.69 IS DISTORTING EXCESSIVELY.
   ELEMENT FINAL_PART-1.70 IS DISTORTING EXCESSIVELY.
   ELEMENT FINAL_PART-1.72 IS DISTORTING EXCESSIVELY.
   ELEMENT FINAL_PART-1.73 IS DISTORTING EXCESSIVELY.
   ELEMENT FINAL_PART-1.74 IS DISTORTING EXCESSIVELY.
   ELEMENT FINAL_PART-1.77 IS DISTORTING EXCESSIVELY.
   ELEMENT FINAL_PART-1.78 IS DISTORTING EXCESSIVELY.
   ELEMENT FINAL_PART-1.79 IS DISTORTING EXCESSIVELY.
   ELEMENT FINAL_PART-1.80 IS DISTORTING EXCESSIVELY.
   ELEMENT FINAL_PART-1.83 IS DISTORTING EXCESSIVELY.
   ELEMENT FINAL_PART-1.84 IS DISTORTING EXCESSIVELY.
   ELEMENT FINAL_PART-1.85 IS DISTORTING EXCESSIVELY.
   ELEMENT FINAL_PART-1.87 IS DISTORTING EXCESSIVELY.
   ELEMENT FINAL_PART-1.88 IS DISTORTING EXCESSIVELY.
   ELEMENT FINAL_PART-1.89 IS DISTORTING EXCESSIVELY.
   ELEMENT FINAL_PART-1.92 IS DISTORTING EXCESSIVELY.
   ELEMENT FINAL_PART-1.93 IS DISTORTING EXCESSIVELY.
   ELEMENT FINAL_PART-1.95 IS DISTORTING EXCESSIVELY.
   ELEMENT FINAL_PART-1.97 IS DISTORTING EXCESSIVELY.
   ELEMENT FINAL_PART-1.100 IS DISTORTING EXCESSIVELY.
   ELEMENT FINAL_PART-1.102 IS DISTORTING EXCESSIVELY.
   ELEMENT FINAL_PART-1.103 IS DISTORTING EXCESSIVELY.
   ELEMENT FINAL_PART-1.105 IS DISTORTING EXCESSIVELY.
   ELEMENT FINAL_PART-1.106 IS DISTORTING EXCESSIVELY.
   ELEMENT FINAL_PART-1.109 IS DISTORTING EXCESSIVELY.
   ELEMENT FINAL_PART-1.110 IS DISTORTING EXCESSIVELY.
   ELEMENT FINAL_PART-1.112 IS DISTORTING EXCESSIVELY.
   ELEMENT FINAL_PART-1.113 IS DISTORTING EXCESSIVELY.
   ELEMENT FINAL_PART-1.116 IS DISTORTING EXCESSIVELY.
   ELEMENT FINAL_PART-1.117 IS DISTORTING EXCESSIVELY.
   ELEMENT FINAL_PART-1.121 IS DISTORTING EXCESSIVELY.
   ELEMENT FINAL_PART-1.122 IS DISTORTING EXCESSIVELY.
   ELEMENT FINAL_PART-1.123 IS DISTORTING EXCESSIVELY.
   ELEMENT FINAL_PART-1.124 IS DISTORTING EXCESSIVELY.
   ELEMENT FINAL_PART-1.125 IS DISTORTING EXCESSIVELY.
   ELEMENT FINAL_PART-1.128 IS DISTORTING EXCESSIVELY.
   ELEMENT FINAL_PART-1.129 IS DISTORTING EXCESSIVELY.
   ELEMENT FINAL_PART-1.130 IS DISTORTING EXCESSIVELY.
   ELEMENT FINAL_PART-1.132 IS DISTORTING EXCESSIVELY.
   ELEMENT FINAL_PART-1.134 IS DISTORTING EXCESSIVELY.
   ELEMENT FINAL_PART-1.136 IS DISTORTING EXCESSIVELY.
   ELEMENT FINAL_PART-1.137 IS DISTORTING EXCESSIVELY.
   ELEMENT FINAL_PART-1.138 IS DISTORTING EXCESSIVELY.
   ELEMENT FINAL_PART-1.142 IS DISTORTING EXCESSIVELY.
   ELEMENT FINAL_PART-1.143 IS DISTORTING EXCESSIVELY.
   ELEMENT FINAL_PART-1.146 IS DISTORTING EXCESSIVELY.
   ELEMENT FINAL_PART-1.148 IS DISTORTING EXCESSIVELY.
   ELEMENT FINAL_PART-1.150 IS DISTORTING EXCESSIVELY.
   ELEMENT FINAL_PART-1.155 IS DISTORTING EXCESSIVELY.
   ELEMENT FINAL_PART-1.159 IS DISTORTING EXCESSIVELY.
   ELEMENT FINAL_PART-1.162 IS DISTORTING EXCESSIVELY.
   ELEMENT FINAL_PART-1.165 IS DISTORTING EXCESSIVELY.
   ELEMENT FINAL_PART-1.167 IS DISTORTING EXCESSIVELY.
   ELEMENT FINAL_PART-1.168 IS DISTORTING EXCESSIVELY.
   ELEMENT FINAL_PART-1.169 IS DISTORTING EXCESSIVELY.
   ELEMENT FINAL_PART-1.170 IS DISTORTING EXCESSIVELY.
   ELEMENT FINAL_PART-1.172 IS DISTORTING EXCESSIVELY.
   ELEMENT FINAL_PART-1.175 IS DISTORTING EXCESSIVELY.
   ELEMENT FINAL_PART-1.176 IS DISTORTING EXCESSIVELY.
   ELEMENT FINAL_PART-1.178 IS DISTORTING EXCESSIVELY.
   ELEMENT FINAL_PART-1.182 IS DISTORTING EXCESSIVELY.
   ELEMENT FINAL_PART-1.186 IS DISTORTING EXCESSIVELY.
   ELEMENT FINAL_PART-1.188 IS DISTORTING EXCESSIVELY.
   ELEMENT FINAL_PART-1.190 IS DISTORTING EXCESSIVELY.
   ELEMENT FINAL_PART-1.192 IS DISTORTING EXCESSIVELY.
   ELEMENT FINAL_PART-1.194 IS DISTORTING EXCESSIVELY.
   ELEMENT FINAL_PART-1.195 IS DISTORTING EXCESSIVELY.
   ELEMENT FINAL_PART-1.197 IS DISTORTING EXCESSIVELY.
   ELEMENT FINAL_PART-1.198 IS DISTORTING EXCESSIVELY.
   ELEMENT FINAL_PART-1.201 IS DISTORTING EXCESSIVELY.
   ELEMENT FINAL_PART-1.202 IS DISTORTING EXCESSIVELY.
   ELEMENT FINAL_PART-1.203 IS DISTORTING EXCESSIVELY.
   ELEMENT FINAL_PART-1.206 IS DISTORTING EXCESSIVELY.
   ELEMENT FINAL_PART-1.208 IS DISTORTING EXCESSIVELY.
   ELEMENT FINAL_PART-1.212 IS DISTORTING EXCESSIVELY.
   ELEMENT FINAL_PART-1.213 IS DISTORTING EXCESSIVELY.
   ELEMENT FINAL_PART-1.214 IS DISTORTING EXCESSIVELY.
   ELEMENT FINAL_PART-1.215 IS DISTORTING EXCESSIVELY.
   ELEMENT FINAL_PART-1.217 IS DISTORTING EXCESSIVELY.
   ELEMENT FINAL_PART-1.220 IS DISTORTING EXCESSIVELY.
   ELEMENT FINAL_PART-1.223 IS DISTORTING EXCESSIVELY.
   ELEMENT FINAL_PART-1.224 IS DISTORTING EXCESSIVELY.
   ELEMENT FINAL_PART-1.229 IS DISTORTING EXCESSIVELY.
   ELEMENT FINAL_PART-1.230 IS DISTORTING EXCESSIVELY.
   ELEMENT FINAL_PART-1.231 IS DISTORTING EXCESSIVELY.
   ELEMENT FINAL_PART-1.233 IS DISTORTING EXCESSIVELY.
   ELEMENT FINAL_PART-1.234 IS DISTORTING EXCESSIVELY.
   ELEMENT FINAL_PART-1.236 IS DISTORTING EXCESSIVELY.
   ELEMENT FINAL_PART-1.238 IS DISTORTING EXCESSIVELY.
   ELEMENT FINAL_PART-1.239 IS DISTORTING EXCESSIVELY.
   ELEMENT FINAL_PART-1.240 IS DISTORTING EXCESSIVELY.
   ELEMENT FINAL_PART-1.247 IS DISTORTING EXCESSIVELY.
   ELEMENT FINAL_PART-1.249 IS DISTORTING EXCESSIVELY.
   ELEMENT FINAL_PART-1.251 IS DISTORTING EXCESSIVELY.
   ELEMENT FINAL_PART-1.252 IS DISTORTING EXCESSIVELY.
   ELEMENT FINAL_PART-1.253 IS DISTORTING EXCESSIVELY.
   ELEMENT FINAL_PART-1.257 IS DISTORTING EXCESSIVELY.
   ELEMENT FINAL_PART-1.258 IS DISTORTING EXCESSIVELY.
   ELEMENT FINAL_PART-1.262 IS DISTORTING EXCESSIVELY.
   ELEMENT FINAL_PART-1.264 IS DISTORTING EXCESSIVELY.
   ELEMENT FINAL_PART-1.265 IS DISTORTING EXCESSIVELY.
   ELEMENT FINAL_PART-1.266 IS DISTORTING EXCESSIVELY.
   ELEMENT FINAL_PART-1.267 IS DISTORTING EXCESSIVELY.
   ELEMENT FINAL_PART-1.268 IS DISTORTING EXCESSIVELY.
   ELEMENT FINAL_PART-1.269 IS DISTORTING EXCESSIVELY.
   ELEMENT FINAL_PART-1.271 IS DISTORTING EXCESSIVELY.
   ELEMENT FINAL_PART-1.274 IS DISTORTING EXCESSIVELY.
   ELEMENT FINAL_PART-1.280 IS DISTORTING EXCESSIVELY.
   ELEMENT FINAL_PART-1.281 IS DISTORTING EXCESSIVELY.
   ELEMENT FINAL_PART-1.283 IS DISTORTING EXCESSIVELY.
   ELEMENT FINAL_PART-1.285 IS DISTORTING EXCESSIVELY.
   ELEMENT FINAL_PART-1.289 IS DISTORTING EXCESSIVELY.
   ELEMENT FINAL_PART-1.291 IS DISTORTING EXCESSIVELY.
   ELEMENT FINAL_PART-1.295 IS DISTORTING EXCESSIVELY.
   ELEMENT FINAL_PART-1.297 IS DISTORTING EXCESSIVELY.
   ELEMENT FINAL_PART-1.298 IS DISTORTING EXCESSIVELY.
   ELEMENT FINAL_PART-1.300 IS DISTORTING EXCESSIVELY.
   ELEMENT FINAL_PART-1.302 IS DISTORTING EXCESSIVELY.
   ELEMENT FINAL_PART-1.306 IS DISTORTING EXCESSIVELY.
   ELEMENT FINAL_PART-1.307 IS DISTORTING EXCESSIVELY.
   ELEMENT FINAL_PART-1.308 IS DISTORTING EXCESSIVELY.
   ELEMENT FINAL_PART-1.309 IS DISTORTING EXCESSIVELY.
   ELEMENT FINAL_PART-1.311 IS DISTORTING EXCESSIVELY.
   ELEMENT FINAL_PART-1.312 IS DISTORTING EXCESSIVELY.
   ELEMENT FINAL_PART-1.313 IS DISTORTING EXCESSIVELY.
   ELEMENT FINAL_PART-1.314 IS DISTORTING EXCESSIVELY.
   ELEMENT FINAL_PART-1.315 IS DISTORTING EXCESSIVELY.
   ELEMENT FINAL_PART-1.316 IS DISTORTING EXCESSIVELY.
   ELEMENT FINAL_PART-1.319 IS DISTORTING EXCESSIVELY.
   ELEMENT FINAL_PART-1.321 IS DISTORTING EXCESSIVELY.
   ELEMENT FINAL_PART-1.322 IS DISTORTING EXCESSIVELY.
   ELEMENT FINAL_PART-1.332 IS DISTORTING EXCESSIVELY.
   ELEMENT FINAL_PART-1.333 IS DISTORTING EXCESSIVELY.
   ELEMENT FINAL_PART-1.337 IS DISTORTING EXCESSIVELY.
   ELEMENT FINAL_PART-1.340 IS DISTORTING EXCESSIVELY.
   ELEMENT FINAL_PART-1.342 IS DISTORTING EXCESSIVELY.
   ELEMENT FINAL_PART-1.343 IS DISTORTING EXCESSIVELY.
   ELEMENT FINAL_PART-1.345 IS DISTORTING EXCESSIVELY.
   ELEMENT FINAL_PART-1.348 IS DISTORTING EXCESSIVELY.
   ELEMENT FINAL_PART-1.349 IS DISTORTING EXCESSIVELY.
   ELEMENT FINAL_PART-1.351 IS DISTORTING EXCESSIVELY.
   ELEMENT FINAL_PART-1.355 IS DISTORTING EXCESSIVELY.
   ELEMENT FINAL_PART-1.356 IS DISTORTING EXCESSIVELY.
   ELEMENT FINAL_PART-1.357 IS DISTORTING EXCESSIVELY.
   ELEMENT FINAL_PART-1.358 IS DISTORTING EXCESSIVELY.
   ELEMENT FINAL_PART-1.359 IS DISTORTING EXCESSIVELY.
   ELEMENT FINAL_PART-1.361 IS DISTORTING EXCESSIVELY.
   ELEMENT FINAL_PART-1.362 IS DISTORTING EXCESSIVELY.
   ELEMENT FINAL_PART-1.363 IS DISTORTING EXCESSIVELY.
   ELEMENT FINAL_PART-1.364 IS DISTORTING EXCESSIVELY.
   ELEMENT FINAL_PART-1.371 IS DISTORTING EXCESSIVELY.
   ELEMENT FINAL_PART-1.374 IS DISTORTING EXCESSIVELY.
   ELEMENT FINAL_PART-1.375 IS DISTORTING EXCESSIVELY.
   ELEMENT FINAL_PART-1.376 IS DISTORTING EXCESSIVELY.
   ELEMENT FINAL_PART-1.377 IS DISTORTING EXCESSIVELY.
   ELEMENT FINAL_PART-1.378 IS DISTORTING EXCESSIVELY.
   ELEMENT FINAL_PART-1.381 IS DISTORTING EXCESSIVELY.
   ELEMENT FINAL_PART-1.382 IS DISTORTING EXCESSIVELY.
   ELEMENT FINAL_PART-1.387 IS DISTORTING EXCESSIVELY.
   ELEMENT FINAL_PART-1.388 IS DISTORTING EXCESSIVELY.
   ELEMENT FINAL_PART-1.390 IS DISTORTING EXCESSIVELY.
   ELEMENT FINAL_PART-1.393 IS DISTORTING EXCESSIVELY.
   ELEMENT FINAL_PART-1.395 IS DISTORTING EXCESSIVELY.
   ELEMENT FINAL_PART-1.396 IS DISTORTING EXCESSIVELY.
   ELEMENT FINAL_PART-1.399 IS DISTORTING EXCESSIVELY.
   ELEMENT FINAL_PART-1.401 IS DISTORTING EXCESSIVELY.
   ELEMENT FINAL_PART-1.407 IS DISTORTING EXCESSIVELY.
   ELEMENT FINAL_PART-1.408 IS DISTORTING EXCESSIVELY.
   ELEMENT FINAL_PART-1.409 IS DISTORTING EXCESSIVELY.
   ELEMENT FINAL_PART-1.410 IS DISTORTING EXCESSIVELY.
   ELEMENT FINAL_PART-1.411 IS DISTORTING EXCESSIVELY.
   ELEMENT FINAL_PART-1.413 IS DISTORTING EXCESSIVELY.
   ELEMENT FINAL_PART-1.417 IS DISTORTING EXCESSIVELY.
   ELEMENT FINAL_PART-1.419 IS DISTORTING EXCESSIVELY.
   ELEMENT FINAL_PART-1.423 IS DISTORTING EXCESSIVELY.
   ELEMENT FINAL_PART-1.424 IS DISTORTING EXCESSIVELY.
   ELEMENT FINAL_PART-1.429 IS DISTORTING EXCESSIVELY.
   ELEMENT FINAL_PART-1.430 IS DISTORTING EXCESSIVELY.
   ELEMENT FINAL_PART-1.432 IS DISTORTING EXCESSIVELY.
   ELEMENT FINAL_PART-1.435 IS DISTORTING EXCESSIVELY.
   ELEMENT FINAL_PART-1.436 IS DISTORTING EXCESSIVELY.
   ELEMENT FINAL_PART-1.437 IS DISTORTING EXCESSIVELY.
   ELEMENT FINAL_PART-1.438 IS DISTORTING EXCESSIVELY.
   ELEMENT FINAL_PART-1.441 IS DISTORTING EXCESSIVELY.
   ELEMENT FINAL_PART-1.442 IS DISTORTING EXCESSIVELY.
   ELEMENT FINAL_PART-1.443 IS DISTORTING EXCESSIVELY.
   ELEMENT FINAL_PART-1.444 IS DISTORTING EXCESSIVELY.
   ELEMENT FINAL_PART-1.446 IS DISTORTING EXCESSIVELY.
   ELEMENT FINAL_PART-1.449 IS DISTORTING EXCESSIVELY.
   ELEMENT FINAL_PART-1.450 IS DISTORTING EXCESSIVELY.
   ELEMENT FINAL_PART-1.454 IS DISTORTING EXCESSIVELY.
   ELEMENT FINAL_PART-1.455 IS DISTORTING EXCESSIVELY.
   ELEMENT FINAL_PART-1.456 IS DISTORTING EXCESSIVELY.
   ELEMENT FINAL_PART-1.457 IS DISTORTING EXCESSIVELY.
   ELEMENT FINAL_PART-1.458 IS DISTORTING EXCESSIVELY.
   ELEMENT FINAL_PART-1.459 IS DISTORTING EXCESSIVELY.
   ELEMENT FINAL_PART-1.462 IS DISTORTING EXCESSIVELY.
   ELEMENT FINAL_PART-1.463 IS DISTORTING EXCESSIVELY.
   ELEMENT FINAL_PART-1.465 IS DISTORTING EXCESSIVELY.
   ELEMENT FINAL_PART-1.479 IS DISTORTING EXCESSIVELY.
   ELEMENT FINAL_PART-1.481 IS DISTORTING EXCESSIVELY.
   ELEMENT FINAL_PART-1.482 IS DISTORTING EXCESSIVELY.
   ELEMENT FINAL_PART-1.484 IS DISTORTING EXCESSIVELY.
   ELEMENT FINAL_PART-1.487 IS DISTORTING EXCESSIVELY.
   ELEMENT FINAL_PART-1.488 IS DISTORTING EXCESSIVELY.
   ELEMENT FINAL_PART-1.489 IS DISTORTING EXCESSIVELY.
   ELEMENT FINAL_PART-1.490 IS DISTORTING EXCESSIVELY.
   ELEMENT FINAL_PART-1.491 IS DISTORTING EXCESSIVELY.
   ELEMENT FINAL_PART-1.493 IS DISTORTING EXCESSIVELY.
   ELEMENT FINAL_PART-1.495 IS DISTORTING EXCESSIVELY.
   ELEMENT FINAL_PART-1.496 IS DISTORTING EXCESSIVELY.
   ELEMENT FINAL_PART-1.499 IS DISTORTING EXCESSIVELY.
   ELEMENT FINAL_PART-1.500 IS DISTORTING EXCESSIVELY.
   ELEMENT FINAL_PART-1.502 IS DISTORTING EXCESSIVELY.
   ELEMENT FINAL_PART-1.506 IS DISTORTING EXCESSIVELY.
   ELEMENT FINAL_PART-1.507 IS DISTORTING EXCESSIVELY.
   ELEMENT FINAL_PART-1.508 IS DISTORTING EXCESSIVELY.
   ELEMENT FINAL_PART-1.511 IS DISTORTING EXCESSIVELY.
   ELEMENT FINAL_PART-1.513 IS DISTORTING EXCESSIVELY.
   ELEMENT FINAL_PART-1.514 IS DISTORTING EXCESSIVELY.
   ELEMENT FINAL_PART-1.515 IS DISTORTING EXCESSIVELY.
   ELEMENT FINAL_PART-1.516 IS DISTORTING EXCESSIVELY.
   ELEMENT FINAL_PART-1.517 IS DISTORTING EXCESSIVELY.
   ELEMENT FINAL_PART-1.520 IS DISTORTING EXCESSIVELY.
   ELEMENT FINAL_PART-1.524 IS DISTORTING EXCESSIVELY.
   ELEMENT FINAL_PART-1.525 IS DISTORTING EXCESSIVELY.
   ELEMENT FINAL_PART-1.529 IS DISTORTING EXCESSIVELY.
   ELEMENT FINAL_PART-1.530 IS DISTORTING EXCESSIVELY.
   ELEMENT FINAL_PART-1.533 IS DISTORTING EXCESSIVELY.
   ELEMENT FINAL_PART-1.534 IS DISTORTING EXCESSIVELY.
   ELEMENT FINAL_PART-1.535 IS DISTORTING EXCESSIVELY.
   ELEMENT FINAL_PART-1.537 IS DISTORTING EXCESSIVELY.
   ELEMENT FINAL_PART-1.538 IS DISTORTING EXCESSIVELY.
   ELEMENT FINAL_PART-1.540 IS DISTORTING EXCESSIVELY.
   ELEMENT FINAL_PART-1.541 IS DISTORTING EXCESSIVELY.
   ELEMENT FINAL_PART-1.542 IS DISTORTING EXCESSIVELY.
   ELEMENT FINAL_PART-1.544 IS DISTORTING EXCESSIVELY.
   ELEMENT FINAL_PART-1.545 IS DISTORTING EXCESSIVELY.
   ELEMENT FINAL_PART-1.547 IS DISTORTING EXCESSIVELY.
   ELEMENT FINAL_PART-1.550 IS DISTORTING EXCESSIVELY.
   ELEMENT FINAL_PART-1.553 IS DISTORTING EXCESSIVELY.
   ELEMENT FINAL_PART-1.554 IS DISTORTING EXCESSIVELY.
   ELEMENT FINAL_PART-1.555 IS DISTORTING EXCESSIVELY.
   ELEMENT FINAL_PART-1.556 IS DISTORTING EXCESSIVELY.
   ELEMENT FINAL_PART-1.560 IS DISTORTING EXCESSIVELY.
   ELEMENT FINAL_PART-1.561 IS DISTORTING EXCESSIVELY.
   ELEMENT FINAL_PART-1.565 IS DISTORTING EXCESSIVELY.
   ELEMENT FINAL_PART-1.566 IS DISTORTING EXCESSIVELY.
   ELEMENT FINAL_PART-1.567 IS DISTORTING EXCESSIVELY.
   ELEMENT FINAL_PART-1.573 IS DISTORTING EXCESSIVELY.
   ELEMENT FINAL_PART-1.574 IS DISTORTING EXCESSIVELY.
   ELEMENT FINAL_PART-1.576 IS DISTORTING EXCESSIVELY.
   ELEMENT FINAL_PART-1.578 IS DISTORTING EXCESSIVELY.
   ELEMENT FINAL_PART-1.581 IS DISTORTING EXCESSIVELY.
   ELEMENT FINAL_PART-1.582 IS DISTORTING EXCESSIVELY.
   ELEMENT FINAL_PART-1.583 IS DISTORTING EXCESSIVELY.
   ELEMENT FINAL_PART-1.585 IS DISTORTING EXCESSIVELY.
   ELEMENT FINAL_PART-1.586 IS DISTORTING EXCESSIVELY.
   ELEMENT FINAL_PART-1.587 IS DISTORTING EXCESSIVELY.
   ELEMENT FINAL_PART-1.590 IS DISTORTING EXCESSIVELY.
   ELEMENT FINAL_PART-1.594 IS DISTORTING EXCESSIVELY.
   ELEMENT FINAL_PART-1.595 IS DISTORTING EXCESSIVELY.
   ELEMENT FINAL_PART-1.597 IS DISTORTING EXCESSIVELY.
   ELEMENT FINAL_PART-1.599 IS DISTORTING EXCESSIVELY.
   ELEMENT FINAL_PART-1.600 IS DISTORTING EXCESSIVELY.
   ELEMENT FINAL_PART-1.601 IS DISTORTING EXCESSIVELY.
   ELEMENT FINAL_PART-1.607 IS DISTORTING EXCESSIVELY.
   ELEMENT FINAL_PART-1.609 IS DISTORTING EXCESSIVELY.
   ELEMENT FINAL_PART-1.610 IS DISTORTING EXCESSIVELY.
   ELEMENT FINAL_PART-1.613 IS DISTORTING EXCESSIVELY.
   ELEMENT FINAL_PART-1.616 IS DISTORTING EXCESSIVELY.
   ELEMENT FINAL_PART-1.618 IS DISTORTING EXCESSIVELY.
   ELEMENT FINAL_PART-1.619 IS DISTORTING EXCESSIVELY.
   ELEMENT FINAL_PART-1.621 IS DISTORTING EXCESSIVELY.
   ELEMENT FINAL_PART-1.622 IS DISTORTING EXCESSIVELY.
   ELEMENT FINAL_PART-1.625 IS DISTORTING EXCESSIVELY.
   ELEMENT FINAL_PART-1.627 IS DISTORTING EXCESSIVELY.
   ELEMENT FINAL_PART-1.628 IS DISTORTING EXCESSIVELY.
   ELEMENT FINAL_PART-1.635 IS DISTORTING EXCESSIVELY.
   ELEMENT FINAL_PART-1.638 IS DISTORTING EXCESSIVELY.
   ELEMENT FINAL_PART-1.639 IS DISTORTING EXCESSIVELY.
   ELEMENT FINAL_PART-1.641 IS DISTORTING EXCESSIVELY.
   ELEMENT FINAL_PART-1.642 IS DISTORTING EXCESSIVELY.
   ELEMENT FINAL_PART-1.647 IS DISTORTING EXCESSIVELY.
   ELEMENT FINAL_PART-1.648 IS DISTORTING EXCESSIVELY.
   ELEMENT FINAL_PART-1.649 IS DISTORTING EXCESSIVELY.
   ELEMENT FINAL_PART-1.651 IS DISTORTING EXCESSIVELY.
   ELEMENT FINAL_PART-1.653 IS DISTORTING EXCESSIVELY.
   ELEMENT FINAL_PART-1.656 IS DISTORTING EXCESSIVELY.
   ELEMENT FINAL_PART-1.657 IS DISTORTING EXCESSIVELY.
   ELEMENT FINAL_PART-1.659 IS DISTORTING EXCESSIVELY.
   ELEMENT FINAL_PART-1.661 IS DISTORTING EXCESSIVELY.
   ELEMENT FINAL_PART-1.666 IS DISTORTING EXCESSIVELY.
   ELEMENT FINAL_PART-1.667 IS DISTORTING EXCESSIVELY.
   ELEMENT FINAL_PART-1.669 IS DISTORTING EXCESSIVELY.
   ELEMENT FINAL_PART-1.672 IS DISTORTING EXCESSIVELY.
   ELEMENT FINAL_PART-1.674 IS DISTORTING EXCESSIVELY.
   ELEMENT FINAL_PART-1.678 IS DISTORTING EXCESSIVELY.
   ELEMENT FINAL_PART-1.679 IS DISTORTING EXCESSIVELY.
   ELEMENT FINAL_PART-1.681 IS DISTORTING EXCESSIVELY.
   ELEMENT FINAL_PART-1.687 IS DISTORTING EXCESSIVELY.
   ELEMENT FINAL_PART-1.688 IS DISTORTING EXCESSIVELY.
   ELEMENT FINAL_PART-1.689 IS DISTORTING EXCESSIVELY.
   ELEMENT FINAL_PART-1.690 IS DISTORTING EXCESSIVELY.
   ELEMENT FINAL_PART-1.691 IS DISTORTING EXCESSIVELY.
   ELEMENT FINAL_PART-1.694 IS DISTORTING EXCESSIVELY.
   ELEMENT FINAL_PART-1.696 IS DISTORTING EXCESSIVELY.
   ELEMENT FINAL_PART-1.697 IS DISTORTING EXCESSIVELY.
   ELEMENT FINAL_PART-1.701 IS DISTORTING EXCESSIVELY.
   ELEMENT FINAL_PART-1.702 IS DISTORTING EXCESSIVELY.
   ELEMENT FINAL_PART-1.703 IS DISTORTING EXCESSIVELY.
   ELEMENT FINAL_PART-1.704 IS DISTORTING EXCESSIVELY.
   ELEMENT FINAL_PART-1.708 IS DISTORTING EXCESSIVELY.
   ELEMENT FINAL_PART-1.711 IS DISTORTING EXCESSIVELY.
   ELEMENT FINAL_PART-1.712 IS DISTORTING EXCESSIVELY.
   ELEMENT FINAL_PART-1.714 IS DISTORTING EXCESSIVELY.
   ELEMENT FINAL_PART-1.716 IS DISTORTING EXCESSIVELY.
   ELEMENT FINAL_PART-1.717 IS DISTORTING EXCESSIVELY.
   ELEMENT FINAL_PART-1.720 IS DISTORTING EXCESSIVELY.
   ELEMENT FINAL_PART-1.721 IS DISTORTING EXCESSIVELY.
   ELEMENT FINAL_PART-1.722 IS DISTORTING EXCESSIVELY.
   ELEMENT FINAL_PART-1.725 IS DISTORTING EXCESSIVELY.
   ELEMENT FINAL_PART-1.726 IS DISTORTING EXCESSIVELY.
   ELEMENT FINAL_PART-1.730 IS DISTORTING EXCESSIVELY.
   ELEMENT FINAL_PART-1.732 IS DISTORTING EXCESSIVELY.
   ELEMENT FINAL_PART-1.733 IS DISTORTING EXCESSIVELY.
   ELEMENT FINAL_PART-1.738 IS DISTORTING EXCESSIVELY.
   ELEMENT FINAL_PART-1.739 IS DISTORTING EXCESSIVELY.
   ELEMENT FINAL_PART-1.742 IS DISTORTING EXCESSIVELY.
   ELEMENT FINAL_PART-1.743 IS DISTORTING EXCESSIVELY.
   ELEMENT FINAL_PART-1.744 IS DISTORTING EXCESSIVELY.
   ELEMENT FINAL_PART-1.749 IS DISTORTING EXCESSIVELY.
   ELEMENT FINAL_PART-1.750 IS DISTORTING EXCESSIVELY.
   ELEMENT FINAL_PART-1.755 IS DISTORTING EXCESSIVELY.
   ELEMENT FINAL_PART-1.756 IS DISTORTING EXCESSIVELY.
   ELEMENT FINAL_PART-1.759 IS DISTORTING EXCESSIVELY.
   ELEMENT FINAL_PART-1.760 IS DISTORTING EXCESSIVELY.
   ELEMENT FINAL_PART-1.761 IS DISTORTING EXCESSIVELY.
   ELEMENT FINAL_PART-1.764 IS DISTORTING EXCESSIVELY.
   ELEMENT FINAL_PART-1.768 IS DISTORTING EXCESSIVELY.
   ELEMENT FINAL_PART-1.769 IS DISTORTING EXCESSIVELY.
   ELEMENT FINAL_PART-1.770 IS DISTORTING EXCESSIVELY.
   ELEMENT FINAL_PART-1.772 IS DISTORTING EXCESSIVELY.
   ELEMENT FINAL_PART-1.774 IS DISTORTING EXCESSIVELY.
   ELEMENT FINAL_PART-1.775 IS DISTORTING EXCESSIVELY.
   ELEMENT FINAL_PART-1.777 IS DISTORTING EXCESSIVELY.
   ELEMENT FINAL_PART-1.779 IS DISTORTING EXCESSIVELY.
   ELEMENT FINAL_PART-1.781 IS DISTORTING EXCESSIVELY.
   ELEMENT FINAL_PART-1.782 IS DISTORTING EXCESSIVELY.
   ELEMENT FINAL_PART-1.783 IS DISTORTING EXCESSIVELY.
   ELEMENT FINAL_PART-1.787 IS DISTORTING EXCESSIVELY.
   ELEMENT FINAL_PART-1.788 IS DISTORTING EXCESSIVELY.
   ELEMENT FINAL_PART-1.792 IS DISTORTING EXCESSIVELY.
   ELEMENT FINAL_PART-1.793 IS DISTORTING EXCESSIVELY.
   ELEMENT FINAL_PART-1.794 IS DISTORTING EXCESSIVELY.
   ELEMENT FINAL_PART-1.797 IS DISTORTING EXCESSIVELY.
   ELEMENT FINAL_PART-1.798 IS DISTORTING EXCESSIVELY.
   ELEMENT FINAL_PART-1.799 IS DISTORTING EXCESSIVELY.
   ELEMENT FINAL_PART-1.803 IS DISTORTING EXCESSIVELY.
   ELEMENT FINAL_PART-1.804 IS DISTORTING EXCESSIVELY.
   ELEMENT FINAL_PART-1.806 IS DISTORTING EXCESSIVELY.
   ELEMENT FINAL_PART-1.807 IS DISTORTING EXCESSIVELY.
   ELEMENT FINAL_PART-1.808 IS DISTORTING EXCESSIVELY.
   ELEMENT FINAL_PART-1.811 IS DISTORTING EXCESSIVELY.
   ELEMENT FINAL_PART-1.816 IS DISTORTING EXCESSIVELY.
   ELEMENT FINAL_PART-1.818 IS DISTORTING EXCESSIVELY.
   ELEMENT FINAL_PART-1.819 IS DISTORTING EXCESSIVELY.
   ELEMENT FINAL_PART-1.820 IS DISTORTING EXCESSIVELY.
   ELEMENT FINAL_PART-1.822 IS DISTORTING EXCESSIVELY.
   ELEMENT FINAL_PART-1.823 IS DISTORTING EXCESSIVELY.
   ELEMENT FINAL_PART-1.824 IS DISTORTING EXCESSIVELY.
   ELEMENT FINAL_PART-1.825 IS DISTORTING EXCESSIVELY.
   ELEMENT FINAL_PART-1.830 IS DISTORTING EXCESSIVELY.
   ELEMENT FINAL_PART-1.832 IS DISTORTING EXCESSIVELY.
   ELEMENT FINAL_PART-1.833 IS DISTORTING EXCESSIVELY.
   ELEMENT FINAL_PART-1.838 IS DISTORTING EXCESSIVELY.
   ELEMENT FINAL_PART-1.839 IS DISTORTING EXCESSIVELY.
   ELEMENT FINAL_PART-1.841 IS DISTORTING EXCESSIVELY.
   ELEMENT FINAL_PART-1.843 IS DISTORTING EXCESSIVELY.
   ELEMENT FINAL_PART-1.844 IS DISTORTING EXCESSIVELY.
   ELEMENT FINAL_PART-1.847 IS DISTORTING EXCESSIVELY.
   ELEMENT FINAL_PART-1.849 IS DISTORTING EXCESSIVELY.
   ELEMENT FINAL_PART-1.850 IS DISTORTING EXCESSIVELY.
   ELEMENT FINAL_PART-1.851 IS DISTORTING EXCESSIVELY.
   ELEMENT FINAL_PART-1.853 IS DISTORTING EXCESSIVELY.
   ELEMENT FINAL_PART-1.854 IS DISTORTING EXCESSIVELY.
   ELEMENT FINAL_PART-1.855 IS DISTORTING EXCESSIVELY.
   ELEMENT FINAL_PART-1.857 IS DISTORTING EXCESSIVELY.
   ELEMENT FINAL_PART-1.863 IS DISTORTING EXCESSIVELY.
   ELEMENT FINAL_PART-1.864 IS DISTORTING EXCESSIVELY.
   ELEMENT FINAL_PART-1.865 IS DISTORTING EXCESSIVELY.
   ELEMENT FINAL_PART-1.867 IS DISTORTING EXCESSIVELY.
   ELEMENT FINAL_PART-1.868 IS DISTORTING EXCESSIVELY.
   ELEMENT FINAL_PART-1.878 IS DISTORTING EXCESSIVELY.
   ELEMENT FINAL_PART-1.879 IS DISTORTING EXCESSIVELY.
   ELEMENT FINAL_PART-1.880 IS DISTORTING EXCESSIVELY.
   ELEMENT FINAL_PART-1.882 IS DISTORTING EXCESSIVELY.
   ELEMENT FINAL_PART-1.883 IS DISTORTING EXCESSIVELY.
   ELEMENT FINAL_PART-1.884 IS DISTORTING EXCESSIVELY.
   ELEMENT FINAL_PART-1.885 IS DISTORTING EXCESSIVELY.
   ELEMENT FINAL_PART-1.886 IS DISTORTING EXCESSIVELY.
   ELEMENT FINAL_PART-1.893 IS DISTORTING EXCESSIVELY.
   ELEMENT FINAL_PART-1.894 IS DISTORTING EXCESSIVELY.
   ELEMENT FINAL_PART-1.897 IS DISTORTING EXCESSIVELY.
   ELEMENT FINAL_PART-1.898 IS DISTORTING EXCESSIVELY.
   ELEMENT FINAL_PART-1.899 IS DISTORTING EXCESSIVELY.
   ELEMENT FINAL_PART-1.903 IS DISTORTING EXCESSIVELY.
   ELEMENT FINAL_PART-1.904 IS DISTORTING EXCESSIVELY.
   ELEMENT FINAL_PART-1.906 IS DISTORTING EXCESSIVELY.
   ELEMENT FINAL_PART-1.907 IS DISTORTING EXCESSIVELY.
   ELEMENT FINAL_PART-1.909 IS DISTORTING EXCESSIVELY.
   ELEMENT FINAL_PART-1.910 IS DISTORTING EXCESSIVELY.
   ELEMENT FINAL_PART-1.911 IS DISTORTING EXCESSIVELY.
   ELEMENT FINAL_PART-1.913 IS DISTORTING EXCESSIVELY.
   ELEMENT FINAL_PART-1.914 IS DISTORTING EXCESSIVELY.
   ELEMENT FINAL_PART-1.916 IS DISTORTING EXCESSIVELY.
   ELEMENT FINAL_PART-1.917 IS DISTORTING EXCESSIVELY.
   ELEMENT FINAL_PART-1.918 IS DISTORTING EXCESSIVELY.
   ELEMENT FINAL_PART-1.920 IS DISTORTING EXCESSIVELY.
   ELEMENT FINAL_PART-1.922 IS DISTORTING EXCESSIVELY.
   ELEMENT FINAL_PART-1.925 IS DISTORTING EXCESSIVELY.
   ELEMENT FINAL_PART-1.928 IS DISTORTING EXCESSIVELY.
   ELEMENT FINAL_PART-1.930 IS DISTORTING EXCESSIVELY.
   ELEMENT FINAL_PART-1.931 IS DISTORTING EXCESSIVELY.
   ELEMENT FINAL_PART-1.933 IS DISTORTING EXCESSIVELY.
   ELEMENT FINAL_PART-1.934 IS DISTORTING EXCESSIVELY.
   ELEMENT FINAL_PART-1.935 IS DISTORTING EXCESSIVELY.
   ELEMENT FINAL_PART-1.936 IS DISTORTING EXCESSIVELY.
   ELEMENT FINAL_PART-1.938 IS DISTORTING EXCESSIVELY.
   ELEMENT FINAL_PART-1.941 IS DISTORTING EXCESSIVELY.
   ELEMENT FINAL_PART-1.942 IS DISTORTING EXCESSIVELY.
   ELEMENT FINAL_PART-1.943 IS DISTORTING EXCESSIVELY.
   ELEMENT FINAL_PART-1.946 IS DISTORTING EXCESSIVELY.
   ELEMENT FINAL_PART-1.947 IS DISTORTING EXCESSIVELY.
   ELEMENT FINAL_PART-1.948 IS DISTORTING EXCESSIVELY.
   ELEMENT FINAL_PART-1.949 IS DISTORTING EXCESSIVELY.
   ELEMENT FINAL_PART-1.950 IS DISTORTING EXCESSIVELY.
   ELEMENT FINAL_PART-1.952 IS DISTORTING EXCESSIVELY.
   ELEMENT FINAL_PART-1.954 IS DISTORTING EXCESSIVELY.
   ELEMENT FINAL_PART-1.956 IS DISTORTING EXCESSIVELY.
   ELEMENT FINAL_PART-1.961 IS DISTORTING EXCESSIVELY.
   ELEMENT FINAL_PART-1.962 IS DISTORTING EXCESSIVELY.
   ELEMENT FINAL_PART-1.967 IS DISTORTING EXCESSIVELY.
   ELEMENT FINAL_PART-1.969 IS DISTORTING EXCESSIVELY.
   ELEMENT FINAL_PART-1.971 IS DISTORTING EXCESSIVELY.
   ELEMENT FINAL_PART-1.972 IS DISTORTING EXCESSIVELY.
   ELEMENT FINAL_PART-1.973 IS DISTORTING EXCESSIVELY.
   ELEMENT FINAL_PART-1.975 IS DISTORTING EXCESSIVELY.
   ELEMENT FINAL_PART-1.977 IS DISTORTING EXCESSIVELY.
   ELEMENT FINAL_PART-1.979 IS DISTORTING EXCESSIVELY.
   ELEMENT FINAL_PART-1.981 IS DISTORTING EXCESSIVELY.
   ELEMENT FINAL_PART-1.983 IS DISTORTING EXCESSIVELY.
   ELEMENT FINAL_PART-1.987 IS DISTORTING EXCESSIVELY.
   ELEMENT FINAL_PART-1.988 IS DISTORTING EXCESSIVELY.
   ELEMENT FINAL_PART-1.989 IS DISTORTING EXCESSIVELY.
   ELEMENT FINAL_PART-1.990 IS DISTORTING EXCESSIVELY.
   ELEMENT FINAL_PART-1.991 IS DISTORTING EXCESSIVELY.
   ELEMENT FINAL_PART-1.995 IS DISTORTING EXCESSIVELY.
   ELEMENT FINAL_PART-1.997 IS DISTORTING EXCESSIVELY.
   ELEMENT FINAL_PART-1.1000 IS DISTORTING EXCESSIVELY.
   ELEMENT FINAL_PART-1.1002 IS DISTORTING EXCESSIVELY.
   ELEMENT FINAL_PART-1.1004 IS DISTORTING EXCESSIVELY.
   ELEMENT FINAL_PART-1.1007 IS DISTORTING EXCESSIVELY.
   ELEMENT FINAL_PART-1.1008 IS DISTORTING EXCESSIVELY.
   ELEMENT FINAL_PART-1.1010 IS DISTORTING EXCESSIVELY.
   ELEMENT FINAL_PART-1.1012 IS DISTORTING EXCESSIVELY.
   ELEMENT FINAL_PART-1.1013 IS DISTORTING EXCESSIVELY.
   ELEMENT FINAL_PART-1.1016 IS DISTORTING EXCESSIVELY.
   ELEMENT FINAL_PART-1.1020 IS DISTORTING EXCESSIVELY.
   ELEMENT FINAL_PART-1.1022 IS DISTORTING EXCESSIVELY.
   ELEMENT FINAL_PART-1.1024 IS DISTORTING EXCESSIVELY.
   ELEMENT FINAL_PART-1.1025 IS DISTORTING EXCESSIVELY.
   ELEMENT FINAL_PART-1.1027 IS DISTORTING EXCESSIVELY.
   ELEMENT FINAL_PART-1.1029 IS DISTORTING EXCESSIVELY.
   ELEMENT FINAL_PART-1.1031 IS DISTORTING EXCESSIVELY.
   ELEMENT FINAL_PART-1.1033 IS DISTORTING EXCESSIVELY.
   ELEMENT FINAL_PART-1.1034 IS DISTORTING EXCESSIVELY.
   ELEMENT FINAL_PART-1.1035 IS DISTORTING EXCESSIVELY.
   ELEMENT FINAL_PART-1.1038 IS DISTORTING EXCESSIVELY.
   ELEMENT FINAL_PART-1.1040 IS DISTORTING EXCESSIVELY.
   ELEMENT FINAL_PART-1.1042 IS DISTORTING EXCESSIVELY.
   ELEMENT FINAL_PART-1.1045 IS DISTORTING EXCESSIVELY.
   ELEMENT FINAL_PART-1.1047 IS DISTORTING EXCESSIVELY.
   ELEMENT FINAL_PART-1.1049 IS DISTORTING EXCESSIVELY.
   ELEMENT FINAL_PART-1.1050 IS DISTORTING EXCESSIVELY.
   ELEMENT FINAL_PART-1.1051 IS DISTORTING EXCESSIVELY.
   ELEMENT FINAL_PART-1.1052 IS DISTORTING EXCESSIVELY.
   ELEMENT FINAL_PART-1.1054 IS DISTORTING EXCESSIVELY.
   ELEMENT FINAL_PART-1.1057 IS DISTORTING EXCESSIVELY.
   ELEMENT FINAL_PART-1.1058 IS DISTORTING EXCESSIVELY.
   ELEMENT FINAL_PART-1.1062 IS DISTORTING EXCESSIVELY.
   ELEMENT FINAL_PART-1.1063 IS DISTORTING EXCESSIVELY.
   ELEMENT FINAL_PART-1.1064 IS DISTORTING EXCESSIVELY.
   ELEMENT FINAL_PART-1.1069 IS DISTORTING EXCESSIVELY.
   ELEMENT FINAL_PART-1.1070 IS DISTORTING EXCESSIVELY.
   ELEMENT FINAL_PART-1.1073 IS DISTORTING EXCESSIVELY.
   ELEMENT FINAL_PART-1.1077 IS DISTORTING EXCESSIVELY.
   ELEMENT FINAL_PART-1.1079 IS DISTORTING EXCESSIVELY.
   ELEMENT FINAL_PART-1.1084 IS DISTORTING EXCESSIVELY.
   ELEMENT FINAL_PART-1.1085 IS DISTORTING EXCESSIVELY.
   ELEMENT FINAL_PART-1.1086 IS DISTORTING EXCESSIVELY.
   ELEMENT FINAL_PART-1.1089 IS DISTORTING EXCESSIVELY.
   ELEMENT FINAL_PART-1.1090 IS DISTORTING EXCESSIVELY.
   ELEMENT FINAL_PART-1.1094 IS DISTORTING EXCESSIVELY.
   ELEMENT FINAL_PART-1.1096 IS DISTORTING EXCESSIVELY.
   ELEMENT FINAL_PART-1.1097 IS DISTORTING EXCESSIVELY.
   ELEMENT FINAL_PART-1.1099 IS DISTORTING EXCESSIVELY.
   ELEMENT FINAL_PART-1.1100 IS DISTORTING EXCESSIVELY.
   ELEMENT FINAL_PART-1.1101 IS DISTORTING EXCESSIVELY.
   ELEMENT FINAL_PART-1.1104 IS DISTORTING EXCESSIVELY.
   ELEMENT FINAL_PART-1.1105 IS DISTORTING EXCESSIVELY.
   ELEMENT FINAL_PART-1.1106 IS DISTORTING EXCESSIVELY.
   ELEMENT FINAL_PART-1.1110 IS DISTORTING EXCESSIVELY.
   ELEMENT FINAL_PART-1.1114 IS DISTORTING EXCESSIVELY.
   ELEMENT FINAL_PART-1.1127 IS DISTORTING EXCESSIVELY.
   ELEMENT FINAL_PART-1.1129 IS DISTORTING EXCESSIVELY.
   ELEMENT FINAL_PART-1.1134 IS DISTORTING EXCESSIVELY.
   ELEMENT FINAL_PART-1.1136 IS DISTORTING EXCESSIVELY.
   ELEMENT FINAL_PART-1.1137 IS DISTORTING EXCESSIVELY.
   ELEMENT FINAL_PART-1.1138 IS DISTORTING EXCESSIVELY.
   ELEMENT FINAL_PART-1.1141 IS DISTORTING EXCESSIVELY.
   ELEMENT FINAL_PART-1.1142 IS DISTORTING EXCESSIVELY.
   ELEMENT FINAL_PART-1.1143 IS DISTORTING EXCESSIVELY.
   ELEMENT FINAL_PART-1.1144 IS DISTORTING EXCESSIVELY.
   ELEMENT FINAL_PART-1.1148 IS DISTORTING EXCESSIVELY.
   ELEMENT FINAL_PART-1.1149 IS DISTORTING EXCESSIVELY.
   ELEMENT FINAL_PART-1.1150 IS DISTORTING EXCESSIVELY.
   ELEMENT FINAL_PART-1.1152 IS DISTORTING EXCESSIVELY.
   ELEMENT FINAL_PART-1.1153 IS DISTORTING EXCESSIVELY.
   ELEMENT FINAL_PART-1.1154 IS DISTORTING EXCESSIVELY.
   ELEMENT FINAL_PART-1.1155 IS DISTORTING EXCESSIVELY.
   ELEMENT FINAL_PART-1.1158 IS DISTORTING EXCESSIVELY.
   ELEMENT FINAL_PART-1.1159 IS DISTORTING EXCESSIVELY.
   ELEMENT FINAL_PART-1.1161 IS DISTORTING EXCESSIVELY.
   ELEMENT FINAL_PART-1.1162 IS DISTORTING EXCESSIVELY.
   ELEMENT FINAL_PART-1.1163 IS DISTORTING EXCESSIVELY.
   ELEMENT FINAL_PART-1.1164 IS DISTORTING EXCESSIVELY.
   ELEMENT FINAL_PART-1.1166 IS DISTORTING EXCESSIVELY.
   ELEMENT FINAL_PART-1.1167 IS DISTORTING EXCESSIVELY.
   ELEMENT FINAL_PART-1.1168 IS DISTORTING EXCESSIVELY.
   ELEMENT FINAL_PART-1.1172 IS DISTORTING EXCESSIVELY.
   ELEMENT FINAL_PART-1.1173 IS DISTORTING EXCESSIVELY.
   ELEMENT FINAL_PART-1.1174 IS DISTORTING EXCESSIVELY.
   ELEMENT FINAL_PART-1.1176 IS DISTORTING EXCESSIVELY.
   ELEMENT FINAL_PART-1.1179 IS DISTORTING EXCESSIVELY.
   ELEMENT FINAL_PART-1.1182 IS DISTORTING EXCESSIVELY.
   ELEMENT FINAL_PART-1.1184 IS DISTORTING EXCESSIVELY.
   ELEMENT FINAL_PART-1.1185 IS DISTORTING EXCESSIVELY.
   ELEMENT FINAL_PART-1.1189 IS DISTORTING EXCESSIVELY.
   ELEMENT FINAL_PART-1.1190 IS DISTORTING EXCESSIVELY.
   ELEMENT FINAL_PART-1.1197 IS DISTORTING EXCESSIVELY.
   ELEMENT FINAL_PART-1.1199 IS DISTORTING EXCESSIVELY.
   ELEMENT FINAL_PART-1.1200 IS DISTORTING EXCESSIVELY.
   ELEMENT FINAL_PART-1.1204 IS DISTORTING EXCESSIVELY.
   ELEMENT FINAL_PART-1.1205 IS DISTORTING EXCESSIVELY.
   ELEMENT FINAL_PART-1.1206 IS DISTORTING EXCESSIVELY.
   ELEMENT FINAL_PART-1.1208 IS DISTORTING EXCESSIVELY.
   ELEMENT FINAL_PART-1.1210 IS DISTORTING EXCESSIVELY.
   ELEMENT FINAL_PART-1.1211 IS DISTORTING EXCESSIVELY.
   ELEMENT FINAL_PART-1.1213 IS DISTORTING EXCESSIVELY.
   ELEMENT FINAL_PART-1.1215 IS DISTORTING EXCESSIVELY.
   ELEMENT FINAL_PART-1.1216 IS DISTORTING EXCESSIVELY.
   ELEMENT FINAL_PART-1.1219 IS DISTORTING EXCESSIVELY.
   ELEMENT FINAL_PART-1.1220 IS DISTORTING EXCESSIVELY.
   ELEMENT FINAL_PART-1.1222 IS DISTORTING EXCESSIVELY.
   ELEMENT FINAL_PART-1.1223 IS DISTORTING EXCESSIVELY.
   ELEMENT FINAL_PART-1.1224 IS DISTORTING EXCESSIVELY.
   ELEMENT FINAL_PART-1.1225 IS DISTORTING EXCESSIVELY.
   ELEMENT FINAL_PART-1.1226 IS DISTORTING EXCESSIVELY.
   ELEMENT FINAL_PART-1.1231 IS DISTORTING EXCESSIVELY.
   ELEMENT FINAL_PART-1.1232 IS DISTORTING EXCESSIVELY.
   ELEMENT FINAL_PART-1.1234 IS DISTORTING EXCESSIVELY.
   ELEMENT FINAL_PART-1.1235 IS DISTORTING EXCESSIVELY.
   ELEMENT FINAL_PART-1.1237 IS DISTORTING EXCESSIVELY.
   ELEMENT FINAL_PART-1.1238 IS DISTORTING EXCESSIVELY.
   ELEMENT FINAL_PART-1.1241 IS DISTORTING EXCESSIVELY.
   ELEMENT FINAL_PART-1.1242 IS DISTORTING EXCESSIVELY.
   ELEMENT FINAL_PART-1.1246 IS DISTORTING EXCESSIVELY.
   ELEMENT FINAL_PART-1.1248 IS DISTORTING EXCESSIVELY.
   ELEMENT FINAL_PART-1.1250 IS DISTORTING EXCESSIVELY.
   ELEMENT FINAL_PART-1.1251 IS DISTORTING EXCESSIVELY.
   ELEMENT FINAL_PART-1.1255 IS DISTORTING EXCESSIVELY.
   ELEMENT FINAL_PART-1.1257 IS DISTORTING EXCESSIVELY.
   ELEMENT FINAL_PART-1.1259 IS DISTORTING EXCESSIVELY.
   ELEMENT FINAL_PART-1.1260 IS DISTORTING EXCESSIVELY.
   ELEMENT FINAL_PART-1.1262 IS DISTORTING EXCESSIVELY.
   ELEMENT FINAL_PART-1.1263 IS DISTORTING EXCESSIVELY.
   ELEMENT FINAL_PART-1.1264 IS DISTORTING EXCESSIVELY.
   ELEMENT FINAL_PART-1.1267 IS DISTORTING EXCESSIVELY.
   ELEMENT FINAL_PART-1.1269 IS DISTORTING EXCESSIVELY.
   ELEMENT FINAL_PART-1.1271 IS DISTORTING EXCESSIVELY.
   ELEMENT FINAL_PART-1.1274 IS DISTORTING EXCESSIVELY.
   ELEMENT FINAL_PART-1.1276 IS DISTORTING EXCESSIVELY.
   ELEMENT FINAL_PART-1.1278 IS DISTORTING EXCESSIVELY.
   ELEMENT FINAL_PART-1.1279 IS DISTORTING EXCESSIVELY.
   ELEMENT FINAL_PART-1.1280 IS DISTORTING EXCESSIVELY.
   ELEMENT FINAL_PART-1.1281 IS DISTORTING EXCESSIVELY.
   ELEMENT FINAL_PART-1.1283 IS DISTORTING EXCESSIVELY.
   ELEMENT FINAL_PART-1.1284 IS DISTORTING EXCESSIVELY.
   ELEMENT FINAL_PART-1.1285 IS DISTORTING EXCESSIVELY.
   ELEMENT FINAL_PART-1.1287 IS DISTORTING EXCESSIVELY.
   ELEMENT FINAL_PART-1.1289 IS DISTORTING EXCESSIVELY.
   ELEMENT FINAL_PART-1.1291 IS DISTORTING EXCESSIVELY.
   ELEMENT FINAL_PART-1.1293 IS DISTORTING EXCESSIVELY.
   ELEMENT FINAL_PART-1.1294 IS DISTORTING EXCESSIVELY.
   ELEMENT FINAL_PART-1.1295 IS DISTORTING EXCESSIVELY.
   ELEMENT FINAL_PART-1.1300 IS DISTORTING EXCESSIVELY.
   ELEMENT FINAL_PART-1.1304 IS DISTORTING EXCESSIVELY.
   ELEMENT FINAL_PART-1.1305 IS DISTORTING EXCESSIVELY.
   ELEMENT FINAL_PART-1.1308 IS DISTORTING EXCESSIVELY.
   ELEMENT FINAL_PART-1.1312 IS DISTORTING EXCESSIVELY.
   ELEMENT FINAL_PART-1.1315 IS DISTORTING EXCESSIVELY.
   ELEMENT FINAL_PART-1.1316 IS DISTORTING EXCESSIVELY.
   ELEMENT FINAL_PART-1.1319 IS DISTORTING EXCESSIVELY.
   ELEMENT FINAL_PART-1.1320 IS DISTORTING EXCESSIVELY.
   ELEMENT FINAL_PART-1.1321 IS DISTORTING EXCESSIVELY.
   ELEMENT FINAL_PART-1.1326 IS DISTORTING EXCESSIVELY.
   ELEMENT FINAL_PART-1.1335 IS DISTORTING EXCESSIVELY.
   ELEMENT FINAL_PART-1.1341 IS DISTORTING EXCESSIVELY.
   ELEMENT FINAL_PART-1.1347 IS DISTORTING EXCESSIVELY.
   ELEMENT FINAL_PART-1.1352 IS DISTORTING EXCESSIVELY.
   ELEMENT FINAL_PART-1.1354 IS DISTORTING EXCESSIVELY.
   ELEMENT FINAL_PART-1.1355 IS DISTORTING EXCESSIVELY.
   ELEMENT FINAL_PART-1.1356 IS DISTORTING EXCESSIVELY.
   ELEMENT FINAL_PART-1.1359 IS DISTORTING EXCESSIVELY.
   ELEMENT FINAL_PART-1.1360 IS DISTORTING EXCESSIVELY.
   ELEMENT FINAL_PART-1.1364 IS DISTORTING EXCESSIVELY.
   ELEMENT FINAL_PART-1.1366 IS DISTORTING EXCESSIVELY.
   ELEMENT FINAL_PART-1.1368 IS DISTORTING EXCESSIVELY.
   ELEMENT FINAL_PART-1.1369 IS DISTORTING EXCESSIVELY.
   ELEMENT FINAL_PART-1.1371 IS DISTORTING EXCESSIVELY.
   ELEMENT FINAL_PART-1.1373 IS DISTORTING EXCESSIVELY.
   ELEMENT FINAL_PART-1.1374 IS DISTORTING EXCESSIVELY.
   ELEMENT FINAL_PART-1.1377 IS DISTORTING EXCESSIVELY.
   ELEMENT FINAL_PART-1.1380 IS DISTORTING EXCESSIVELY.
   ELEMENT FINAL_PART-1.1381 IS DISTORTING EXCESSIVELY.
   ELEMENT FINAL_PART-1.1382 IS DISTORTING EXCESSIVELY.
   ELEMENT FINAL_PART-1.1383 IS DISTORTING EXCESSIVELY.
   ELEMENT FINAL_PART-1.1385 IS DISTORTING EXCESSIVELY.
   ELEMENT FINAL_PART-1.1389 IS DISTORTING EXCESSIVELY.
   ELEMENT FINAL_PART-1.1396 IS DISTORTING EXCESSIVELY.
   ELEMENT FINAL_PART-1.1399 IS DISTORTING EXCESSIVELY.
   ELEMENT FINAL_PART-1.1402 IS DISTORTING EXCESSIVELY.
   ELEMENT FINAL_PART-1.1403 IS DISTORTING EXCESSIVELY.
   ELEMENT FINAL_PART-1.1405 IS DISTORTING EXCESSIVELY.
   ELEMENT FINAL_PART-1.1406 IS DISTORTING EXCESSIVELY.
   ELEMENT FINAL_PART-1.1407 IS DISTORTING EXCESSIVELY.
   ELEMENT FINAL_PART-1.1408 IS DISTORTING EXCESSIVELY.
   ELEMENT FINAL_PART-1.1410 IS DISTORTING EXCESSIVELY.
   ELEMENT FINAL_PART-1.1412 IS DISTORTING EXCESSIVELY.
   ELEMENT FINAL_PART-1.1413 IS DISTORTING EXCESSIVELY.
   ELEMENT FINAL_PART-1.1417 IS DISTORTING EXCESSIVELY.
   ELEMENT FINAL_PART-1.1419 IS DISTORTING EXCESSIVELY.
   ELEMENT FINAL_PART-1.1420 IS DISTORTING EXCESSIVELY.
   ELEMENT FINAL_PART-1.1421 IS DISTORTING EXCESSIVELY.
   ELEMENT FINAL_PART-1.1422 IS DISTORTING EXCESSIVELY.
   ELEMENT FINAL_PART-1.1426 IS DISTORTING EXCESSIVELY.
   ELEMENT FINAL_PART-1.1427 IS DISTORTING EXCESSIVELY.
   ELEMENT FINAL_PART-1.1428 IS DISTORTING EXCESSIVELY.
   ELEMENT FINAL_PART-1.1429 IS DISTORTING EXCESSIVELY.
   ELEMENT FINAL_PART-1.1431 IS DISTORTING EXCESSIVELY.
   ELEMENT FINAL_PART-1.1437 IS DISTORTING EXCESSIVELY.
   ELEMENT FINAL_PART-1.1438 IS DISTORTING EXCESSIVELY.
   ELEMENT FINAL_PART-1.1439 IS DISTORTING EXCESSIVELY.
   ELEMENT FINAL_PART-1.1440 IS DISTORTING EXCESSIVELY.
   ELEMENT FINAL_PART-1.1443 IS DISTORTING EXCESSIVELY.
   ELEMENT FINAL_PART-1.1444 IS DISTORTING EXCESSIVELY.
   ELEMENT FINAL_PART-1.1445 IS DISTORTING EXCESSIVELY.
   ELEMENT FINAL_PART-1.1449 IS DISTORTING EXCESSIVELY.
   ELEMENT FINAL_PART-1.1450 IS DISTORTING EXCESSIVELY.
   ELEMENT FINAL_PART-1.1452 IS DISTORTING EXCESSIVELY.
   ELEMENT FINAL_PART-1.1453 IS DISTORTING EXCESSIVELY.
   ELEMENT FINAL_PART-1.1454 IS DISTORTING EXCESSIVELY.
   ELEMENT FINAL_PART-1.1457 IS DISTORTING EXCESSIVELY.
   ELEMENT FINAL_PART-1.1459 IS DISTORTING EXCESSIVELY.
   ELEMENT FINAL_PART-1.1462 IS DISTORTING EXCESSIVELY.
   ELEMENT FINAL_PART-1.1464 IS DISTORTING EXCESSIVELY.
   ELEMENT FINAL_PART-1.1465 IS DISTORTING EXCESSIVELY.
   ELEMENT FINAL_PART-1.1466 IS DISTORTING EXCESSIVELY.
   ELEMENT FINAL_PART-1.1467 IS DISTORTING EXCESSIVELY.
   ELEMENT FINAL_PART-1.1470 IS DISTORTING EXCESSIVELY.
   ELEMENT FINAL_PART-1.1471 IS DISTORTING EXCESSIVELY.
   ELEMENT FINAL_PART-1.1472 IS DISTORTING EXCESSIVELY.
   ELEMENT FINAL_PART-1.1473 IS DISTORTING EXCESSIVELY.
   ELEMENT FINAL_PART-1.1476 IS DISTORTING EXCESSIVELY.
   ELEMENT FINAL_PART-1.1478 IS DISTORTING EXCESSIVELY.
   ELEMENT FINAL_PART-1.1479 IS DISTORTING EXCESSIVELY.
   ELEMENT FINAL_PART-1.1481 IS DISTORTING EXCESSIVELY.
   ELEMENT FINAL_PART-1.1482 IS DISTORTING EXCESSIVELY.
   ELEMENT FINAL_PART-1.1486 IS DISTORTING EXCESSIVELY.
   ELEMENT FINAL_PART-1.1488 IS DISTORTING EXCESSIVELY.
   ELEMENT FINAL_PART-1.1490 IS DISTORTING EXCESSIVELY.
   ELEMENT FINAL_PART-1.1492 IS DISTORTING EXCESSIVELY.
   ELEMENT FINAL_PART-1.1493 IS DISTORTING EXCESSIVELY.
   ELEMENT FINAL_PART-1.1496 IS DISTORTING EXCESSIVELY.
   ELEMENT FINAL_PART-1.1500 IS DISTORTING EXCESSIVELY.
   ELEMENT FINAL_PART-1.1502 IS DISTORTING EXCESSIVELY.
   ELEMENT FINAL_PART-1.1506 IS DISTORTING EXCESSIVELY.
   ELEMENT FINAL_PART-1.1507 IS DISTORTING EXCESSIVELY.
   ELEMENT FINAL_PART-1.1508 IS DISTORTING EXCESSIVELY.
   ELEMENT FINAL_PART-1.1515 IS DISTORTING EXCESSIVELY.
   ELEMENT FINAL_PART-1.1518 IS DISTORTING EXCESSIVELY.
   ELEMENT FINAL_PART-1.1519 IS DISTORTING EXCESSIVELY.
   ELEMENT FINAL_PART-1.1521 IS DISTORTING EXCESSIVELY.
   ELEMENT FINAL_PART-1.1522 IS DISTORTING EXCESSIVELY.
   ELEMENT FINAL_PART-1.1523 IS DISTORTING EXCESSIVELY.
   ELEMENT FINAL_PART-1.1525 IS DISTORTING EXCESSIVELY.
   ELEMENT FINAL_PART-1.1528 IS DISTORTING EXCESSIVELY.
   ELEMENT FINAL_PART-1.1529 IS DISTORTING EXCESSIVELY.
   ELEMENT FINAL_PART-1.1530 IS DISTORTING EXCESSIVELY.
   ELEMENT FINAL_PART-1.1531 IS DISTORTING EXCESSIVELY.
   ELEMENT FINAL_PART-1.1534 IS DISTORTING EXCESSIVELY.
   ELEMENT FINAL_PART-1.1537 IS DISTORTING EXCESSIVELY.
   ELEMENT FINAL_PART-1.1541 IS DISTORTING EXCESSIVELY.
   ELEMENT FINAL_PART-1.1542 IS DISTORTING EXCESSIVELY.
   ELEMENT FINAL_PART-1.1544 IS DISTORTING EXCESSIVELY.
   ELEMENT FINAL_PART-1.1546 IS DISTORTING EXCESSIVELY.
   ELEMENT FINAL_PART-1.1548 IS DISTORTING EXCESSIVELY.
   ELEMENT FINAL_PART-1.1551 IS DISTORTING EXCESSIVELY.
   ELEMENT FINAL_PART-1.1555 IS DISTORTING EXCESSIVELY.
   ELEMENT FINAL_PART-1.1558 IS DISTORTING EXCESSIVELY.
   ELEMENT FINAL_PART-1.1561 IS DISTORTING EXCESSIVELY.
   ELEMENT FINAL_PART-1.1562 IS DISTORTING EXCESSIVELY.
   ELEMENT FINAL_PART-1.1563 IS DISTORTING EXCESSIVELY.
   ELEMENT FINAL_PART-1.1566 IS DISTORTING EXCESSIVELY.
   ELEMENT FINAL_PART-1.1567 IS DISTORTING EXCESSIVELY.
   ELEMENT FINAL_PART-1.1569 IS DISTORTING EXCESSIVELY.
   ELEMENT FINAL_PART-1.1572 IS DISTORTING EXCESSIVELY.
   ELEMENT FINAL_PART-1.1573 IS DISTORTING EXCESSIVELY.
   ELEMENT FINAL_PART-1.1574 IS DISTORTING EXCESSIVELY.
   ELEMENT FINAL_PART-1.1579 IS DISTORTING EXCESSIVELY.
   ELEMENT FINAL_PART-1.1580 IS DISTORTING EXCESSIVELY.
   ELEMENT FINAL_PART-1.1582 IS DISTORTING EXCESSIVELY.
   ELEMENT FINAL_PART-1.1583 IS DISTORTING EXCESSIVELY.
   ELEMENT FINAL_PART-1.1584 IS DISTORTING EXCESSIVELY.
   ELEMENT FINAL_PART-1.1585 IS DISTORTING EXCESSIVELY.
   ELEMENT FINAL_PART-1.1586 IS DISTORTING EXCESSIVELY.
   ELEMENT FINAL_PART-1.1590 IS DISTORTING EXCESSIVELY.
   ELEMENT FINAL_PART-1.1596 IS DISTORTING EXCESSIVELY.
   ELEMENT FINAL_PART-1.1597 IS DISTORTING EXCESSIVELY.
   ELEMENT FINAL_PART-1.1600 IS DISTORTING EXCESSIVELY.
   ELEMENT FINAL_PART-1.1601 IS DISTORTING EXCESSIVELY.
   ELEMENT FINAL_PART-1.1602 IS DISTORTING EXCESSIVELY.
   ELEMENT FINAL_PART-1.1604 IS DISTORTING EXCESSIVELY.
   ELEMENT FINAL_PART-1.1607 IS DISTORTING EXCESSIVELY.
   ELEMENT FINAL_PART-1.1610 IS DISTORTING EXCESSIVELY.
   ELEMENT FINAL_PART-1.1611 IS DISTORTING EXCESSIVELY.
   ELEMENT FINAL_PART-1.1612 IS DISTORTING EXCESSIVELY.
   ELEMENT FINAL_PART-1.1614 IS DISTORTING EXCESSIVELY.
   ELEMENT FINAL_PART-1.1615 IS DISTORTING EXCESSIVELY.
   ELEMENT FINAL_PART-1.1618 IS DISTORTING EXCESSIVELY.
   ELEMENT FINAL_PART-1.1619 IS DISTORTING EXCESSIVELY.
   ELEMENT FINAL_PART-1.1620 IS DISTORTING EXCESSIVELY.
   ELEMENT FINAL_PART-1.1622 IS DISTORTING EXCESSIVELY.
   ELEMENT FINAL_PART-1.1628 IS DISTORTING EXCESSIVELY.
   ELEMENT FINAL_PART-1.1631 IS DISTORTING EXCESSIVELY.
   ELEMENT FINAL_PART-1.1633 IS DISTORTING EXCESSIVELY.
   ELEMENT FINAL_PART-1.1634 IS DISTORTING EXCESSIVELY.
   ELEMENT FINAL_PART-1.1635 IS DISTORTING EXCESSIVELY.
   ELEMENT FINAL_PART-1.1636 IS DISTORTING EXCESSIVELY.
   ELEMENT FINAL_PART-1.1637 IS DISTORTING EXCESSIVELY.
   ELEMENT FINAL_PART-1.1640 IS DISTORTING EXCESSIVELY.
   ELEMENT FINAL_PART-1.1642 IS DISTORTING EXCESSIVELY.
   ELEMENT FINAL_PART-1.1644 IS DISTORTING EXCESSIVELY.
   ELEMENT FINAL_PART-1.1645 IS DISTORTING EXCESSIVELY.
   ELEMENT FINAL_PART-1.1648 IS DISTORTING EXCESSIVELY.
   ELEMENT FINAL_PART-1.1651 IS DISTORTING EXCESSIVELY.
   ELEMENT FINAL_PART-1.1652 IS DISTORTING EXCESSIVELY.
   ELEMENT FINAL_PART-1.1654 IS DISTORTING EXCESSIVELY.
   ELEMENT FINAL_PART-1.1655 IS DISTORTING EXCESSIVELY.
   ELEMENT FINAL_PART-1.1657 IS DISTORTING EXCESSIVELY.
   ELEMENT FINAL_PART-1.1659 IS DISTORTING EXCESSIVELY.
   ELEMENT FINAL_PART-1.1665 IS DISTORTING EXCESSIVELY.
   ELEMENT FINAL_PART-1.1666 IS DISTORTING EXCESSIVELY.
   ELEMENT FINAL_PART-1.1668 IS DISTORTING EXCESSIVELY.
   ELEMENT FINAL_PART-1.1671 IS DISTORTING EXCESSIVELY.
   ELEMENT FINAL_PART-1.1672 IS DISTORTING EXCESSIVELY.
   ELEMENT FINAL_PART-1.1673 IS DISTORTING EXCESSIVELY.
   ELEMENT FINAL_PART-1.1674 IS DISTORTING EXCESSIVELY.
   ELEMENT FINAL_PART-1.1676 IS DISTORTING EXCESSIVELY.
   ELEMENT FINAL_PART-1.1680 IS DISTORTING EXCESSIVELY.
   ELEMENT FINAL_PART-1.1683 IS DISTORTING EXCESSIVELY.
   ELEMENT FINAL_PART-1.1685 IS DISTORTING EXCESSIVELY.
   ELEMENT FINAL_PART-1.1686 IS DISTORTING EXCESSIVELY.
   ELEMENT FINAL_PART-1.1688 IS DISTORTING EXCESSIVELY.
   ELEMENT FINAL_PART-1.1689 IS DISTORTING EXCESSIVELY.
   ELEMENT FINAL_PART-1.1690 IS DISTORTING EXCESSIVELY.
   ELEMENT FINAL_PART-1.1691 IS DISTORTING EXCESSIVELY.
   ELEMENT FINAL_PART-1.1693 IS DISTORTING EXCESSIVELY.
   ELEMENT FINAL_PART-1.1694 IS DISTORTING EXCESSIVELY.
   ELEMENT FINAL_PART-1.1696 IS DISTORTING EXCESSIVELY.
   ELEMENT FINAL_PART-1.1697 IS DISTORTING EXCESSIVELY.
   ELEMENT FINAL_PART-1.1700 IS DISTORTING EXCESSIVELY.
   ELEMENT FINAL_PART-1.1702 IS DISTORTING EXCESSIVELY.
   ELEMENT FINAL_PART-1.1703 IS DISTORTING EXCESSIVELY.
   ELEMENT FINAL_PART-1.1705 IS DISTORTING EXCESSIVELY.
   ELEMENT FINAL_PART-1.1708 IS DISTORTING EXCESSIVELY.
   ELEMENT FINAL_PART-1.1709 IS DISTORTING EXCESSIVELY.
   ELEMENT FINAL_PART-1.1711 IS DISTORTING EXCESSIVELY.
   ELEMENT FINAL_PART-1.1713 IS DISTORTING EXCESSIVELY.
   ELEMENT FINAL_PART-1.1714 IS DISTORTING EXCESSIVELY.
   ELEMENT FINAL_PART-1.1716 IS DISTORTING EXCESSIVELY.
   ELEMENT FINAL_PART-1.1718 IS DISTORTING EXCESSIVELY.
   ELEMENT FINAL_PART-1.1720 IS DISTORTING EXCESSIVELY.
   ELEMENT FINAL_PART-1.1721 IS DISTORTING EXCESSIVELY.
   ELEMENT FINAL_PART-1.1724 IS DISTORTING EXCESSIVELY.
   ELEMENT FINAL_PART-1.1726 IS DISTORTING EXCESSIVELY.
   ELEMENT FINAL_PART-1.1730 IS DISTORTING EXCESSIVELY.
   ELEMENT FINAL_PART-1.1734 IS DISTORTING EXCESSIVELY.
   ELEMENT FINAL_PART-1.1735 IS DISTORTING EXCESSIVELY.
   ELEMENT FINAL_PART-1.1738 IS DISTORTING EXCESSIVELY.
   ELEMENT FINAL_PART-1.1739 IS DISTORTING EXCESSIVELY.
   ELEMENT FINAL_PART-1.1741 IS DISTORTING EXCESSIVELY.
   ELEMENT FINAL_PART-1.1742 IS DISTORTING EXCESSIVELY.
   ELEMENT FINAL_PART-1.1744 IS DISTORTING EXCESSIVELY.
   ELEMENT FINAL_PART-1.1746 IS DISTORTING EXCESSIVELY.
   ELEMENT FINAL_PART-1.1748 IS DISTORTING EXCESSIVELY.
   ELEMENT FINAL_PART-1.1749 IS DISTORTING EXCESSIVELY.
   ELEMENT FINAL_PART-1.1754 IS DISTORTING EXCESSIVELY.
   ELEMENT FINAL_PART-1.1755 IS DISTORTING EXCESSIVELY.
   ELEMENT FINAL_PART-1.1756 IS DISTORTING EXCESSIVELY.
   ELEMENT FINAL_PART-1.1758 IS DISTORTING EXCESSIVELY.
   ELEMENT FINAL_PART-1.1759 IS DISTORTING EXCESSIVELY.
   ELEMENT FINAL_PART-1.1760 IS DISTORTING EXCESSIVELY.
   ELEMENT FINAL_PART-1.1761 IS DISTORTING EXCESSIVELY.
   ELEMENT FINAL_PART-1.1764 IS DISTORTING EXCESSIVELY.
   ELEMENT FINAL_PART-1.1765 IS DISTORTING EXCESSIVELY.
   ELEMENT FINAL_PART-1.1766 IS DISTORTING EXCESSIVELY.
   ELEMENT FINAL_PART-1.1767 IS DISTORTING EXCESSIVELY.
   ELEMENT FINAL_PART-1.1768 IS DISTORTING EXCESSIVELY.
   ELEMENT FINAL_PART-1.1769 IS DISTORTING EXCESSIVELY.
   ELEMENT FINAL_PART-1.1770 IS DISTORTING EXCESSIVELY.
   ELEMENT FINAL_PART-1.1774 IS DISTORTING EXCESSIVELY.
   ELEMENT FINAL_PART-1.1775 IS DISTORTING EXCESSIVELY.
   ELEMENT FINAL_PART-1.1776 IS DISTORTING EXCESSIVELY.
   ELEMENT FINAL_PART-1.1778 IS DISTORTING EXCESSIVELY.
   ELEMENT FINAL_PART-1.1779 IS DISTORTING EXCESSIVELY.
   ELEMENT FINAL_PART-1.1782 IS DISTORTING EXCESSIVELY.
   ELEMENT FINAL_PART-1.1783 IS DISTORTING EXCESSIVELY.
   ELEMENT FINAL_PART-1.1784 IS DISTORTING EXCESSIVELY.
   ELEMENT FINAL_PART-1.1786 IS DISTORTING EXCESSIVELY.
   ELEMENT FINAL_PART-1.1787 IS DISTORTING EXCESSIVELY.
   ELEMENT FINAL_PART-1.1789 IS DISTORTING EXCESSIVELY.
   ELEMENT FINAL_PART-1.1790 IS DISTORTING EXCESSIVELY.
   ELEMENT FINAL_PART-1.1792 IS DISTORTING EXCESSIVELY.
   ELEMENT FINAL_PART-1.1793 IS DISTORTING EXCESSIVELY.
   ELEMENT FINAL_PART-1.1795 IS DISTORTING EXCESSIVELY.
   ELEMENT FINAL_PART-1.1797 IS DISTORTING EXCESSIVELY.
   ELEMENT FINAL_PART-1.1798 IS DISTORTING EXCESSIVELY.
   ELEMENT FINAL_PART-1.1800 IS DISTORTING EXCESSIVELY.
   ELEMENT FINAL_PART-1.1801 IS DISTORTING EXCESSIVELY.
   ELEMENT FINAL_PART-1.1803 IS DISTORTING EXCESSIVELY.
   ELEMENT FINAL_PART-1.1804 IS DISTORTING EXCESSIVELY.
   ELEMENT FINAL_PART-1.1805 IS DISTORTING EXCESSIVELY.
   ELEMENT FINAL_PART-1.1807 IS DISTORTING EXCESSIVELY.
   ELEMENT FINAL_PART-1.1811 IS DISTORTING EXCESSIVELY.
   ELEMENT FINAL_PART-1.1812 IS DISTORTING EXCESSIVELY.
   ELEMENT FINAL_PART-1.1813 IS DISTORTING EXCESSIVELY.
   ELEMENT FINAL_PART-1.1814 IS DISTORTING EXCESSIVELY.
   ELEMENT FINAL_PART-1.1816 IS DISTORTING EXCESSIVELY.
   ELEMENT FINAL_PART-1.1819 IS DISTORTING EXCESSIVELY.
   ELEMENT FINAL_PART-1.1824 IS DISTORTING EXCESSIVELY.
   ELEMENT FINAL_PART-1.1825 IS DISTORTING EXCESSIVELY.
   ELEMENT FINAL_PART-1.1827 IS DISTORTING EXCESSIVELY.
   ELEMENT FINAL_PART-1.1829 IS DISTORTING EXCESSIVELY.
   ELEMENT FINAL_PART-1.1834 IS DISTORTING EXCESSIVELY.
   ELEMENT FINAL_PART-1.1835 IS DISTORTING EXCESSIVELY.
   ELEMENT FINAL_PART-1.1838 IS DISTORTING EXCESSIVELY.
   ELEMENT FINAL_PART-1.1840 IS DISTORTING EXCESSIVELY.
   ELEMENT FINAL_PART-1.1844 IS DISTORTING EXCESSIVELY.
   ELEMENT FINAL_PART-1.1850 IS DISTORTING EXCESSIVELY.
   ELEMENT FINAL_PART-1.1851 IS DISTORTING EXCESSIVELY.
   ELEMENT FINAL_PART-1.1852 IS DISTORTING EXCESSIVELY.
   ELEMENT FINAL_PART-1.1854 IS DISTORTING EXCESSIVELY.
   ELEMENT FINAL_PART-1.1859 IS DISTORTING EXCESSIVELY.
   ELEMENT FINAL_PART-1.1860 IS DISTORTING EXCESSIVELY.
   ELEMENT FINAL_PART-1.1861 IS DISTORTING EXCESSIVELY.
   ELEMENT FINAL_PART-1.1864 IS DISTORTING EXCESSIVELY.
   ELEMENT FINAL_PART-1.1868 IS DISTORTING EXCESSIVELY.
   ELEMENT FINAL_PART-1.1869 IS DISTORTING EXCESSIVELY.
   ELEMENT FINAL_PART-1.1874 IS DISTORTING EXCESSIVELY.
   ELEMENT FINAL_PART-1.1875 IS DISTORTING EXCESSIVELY.
   ELEMENT FINAL_PART-1.1876 IS DISTORTING EXCESSIVELY.
   ELEMENT FINAL_PART-1.1877 IS DISTORTING EXCESSIVELY.
   ELEMENT FINAL_PART-1.1878 IS DISTORTING EXCESSIVELY.
   ELEMENT FINAL_PART-1.1879 IS DISTORTING EXCESSIVELY.
   ELEMENT FINAL_PART-1.1881 IS DISTORTING EXCESSIVELY.
   ELEMENT FINAL_PART-1.1882 IS DISTORTING EXCESSIVELY.
   ELEMENT FINAL_PART-1.1886 IS DISTORTING EXCESSIVELY.
   ELEMENT FINAL_PART-1.1888 IS DISTORTING EXCESSIVELY.
   ELEMENT FINAL_PART-1.1892 IS DISTORTING EXCESSIVELY.
   ELEMENT FINAL_PART-1.1893 IS DISTORTING EXCESSIVELY.
   ELEMENT FINAL_PART-1.1895 IS DISTORTING EXCESSIVELY.
   ELEMENT FINAL_PART-1.1896 IS DISTORTING EXCESSIVELY.
   ELEMENT FINAL_PART-1.1897 IS DISTORTING EXCESSIVELY.
   ELEMENT FINAL_PART-1.1898 IS DISTORTING EXCESSIVELY.
   ELEMENT FINAL_PART-1.1899 IS DISTORTING EXCESSIVELY.
   ELEMENT FINAL_PART-1.1900 IS DISTORTING EXCESSIVELY.
   ELEMENT FINAL_PART-1.1901 IS DISTORTING EXCESSIVELY.
   ELEMENT FINAL_PART-1.1902 IS DISTORTING EXCESSIVELY.
   ELEMENT FINAL_PART-1.1903 IS DISTORTING EXCESSIVELY.
   ELEMENT FINAL_PART-1.1904 IS DISTORTING EXCESSIVELY.
   ELEMENT FINAL_PART-1.1905 IS DISTORTING EXCESSIVELY.
   ELEMENT FINAL_PART-1.1906 IS DISTORTING EXCESSIVELY.
   ELEMENT FINAL_PART-1.1907 IS DISTORTING EXCESSIVELY.
   ELEMENT FINAL_PART-1.1908 IS DISTORTING EXCESSIVELY.
   ELEMENT FINAL_PART-1.1912 IS DISTORTING EXCESSIVELY.
   ELEMENT FINAL_PART-1.1914 IS DISTORTING EXCESSIVELY.
   ELEMENT FINAL_PART-1.1915 IS DISTORTING EXCESSIVELY.
   ELEMENT FINAL_PART-1.1917 IS DISTORTING EXCESSIVELY.
   ELEMENT FINAL_PART-1.1918 IS DISTORTING EXCESSIVELY.
   ELEMENT FINAL_PART-1.1919 IS DISTORTING EXCESSIVELY.
   ELEMENT FINAL_PART-1.1920 IS DISTORTING EXCESSIVELY.
   ELEMENT FINAL_PART-1.1924 IS DISTORTING EXCESSIVELY.
   ELEMENT FINAL_PART-1.1925 IS DISTORTING EXCESSIVELY.
   ELEMENT FINAL_PART-1.1927 IS DISTORTING EXCESSIVELY.
   ELEMENT FINAL_PART-1.1930 IS DISTORTING EXCESSIVELY.
   ELEMENT FINAL_PART-1.1932 IS DISTORTING EXCESSIVELY.
   ELEMENT FINAL_PART-1.1934 IS DISTORTING EXCESSIVELY.
   ELEMENT FINAL_PART-1.1935 IS DISTORTING EXCESSIVELY.
   ELEMENT FINAL_PART-1.1936 IS DISTORTING EXCESSIVELY.
   ELEMENT FINAL_PART-1.1937 IS DISTORTING EXCESSIVELY.
   ELEMENT FINAL_PART-1.1941 IS DISTORTING EXCESSIVELY.
   ELEMENT FINAL_PART-1.1942 IS DISTORTING EXCESSIVELY.
   ELEMENT FINAL_PART-1.1943 IS DISTORTING EXCESSIVELY.
   ELEMENT FINAL_PART-1.1945 IS DISTORTING EXCESSIVELY.
   ELEMENT FINAL_PART-1.1946 IS DISTORTING EXCESSIVELY.
   ELEMENT FINAL_PART-1.1948 IS DISTORTING EXCESSIVELY.
   ELEMENT FINAL_PART-1.1949 IS DISTORTING EXCESSIVELY.
   ELEMENT FINAL_PART-1.1950 IS DISTORTING EXCESSIVELY.
   ELEMENT FINAL_PART-1.1952 IS DISTORTING EXCESSIVELY.
   ELEMENT FINAL_PART-1.1953 IS DISTORTING EXCESSIVELY.
   ELEMENT FINAL_PART-1.1954 IS DISTORTING EXCESSIVELY.
   ELEMENT FINAL_PART-1.1957 IS DISTORTING EXCESSIVELY.
   ELEMENT FINAL_PART-1.1958 IS DISTORTING EXCESSIVELY.
   ELEMENT FINAL_PART-1.1959 IS DISTORTING EXCESSIVELY.
   ELEMENT FINAL_PART-1.1960 IS DISTORTING EXCESSIVELY.
   ELEMENT FINAL_PART-1.1961 IS DISTORTING EXCESSIVELY.
   ELEMENT FINAL_PART-1.1964 IS DISTORTING EXCESSIVELY.
   ELEMENT FINAL_PART-1.1965 IS DISTORTING EXCESSIVELY.
   ELEMENT FINAL_PART-1.1971 IS DISTORTING EXCESSIVELY.
   ELEMENT FINAL_PART-1.1973 IS DISTORTING EXCESSIVELY.
   ELEMENT FINAL_PART-1.1974 IS DISTORTING EXCESSIVELY.
   ELEMENT FINAL_PART-1.1977 IS DISTORTING EXCESSIVELY.
   ELEMENT FINAL_PART-1.1982 IS DISTORTING EXCESSIVELY.
   ELEMENT FINAL_PART-1.1984 IS DISTORTING EXCESSIVELY.
   ELEMENT FINAL_PART-1.1986 IS DISTORTING EXCESSIVELY.
   ELEMENT FINAL_PART-1.1988 IS DISTORTING EXCESSIVELY.
   ELEMENT FINAL_PART-1.1990 IS DISTORTING EXCESSIVELY.
   ELEMENT FINAL_PART-1.1992 IS DISTORTING EXCESSIVELY.
   ELEMENT FINAL_PART-1.1994 IS DISTORTING EXCESSIVELY.
   ELEMENT FINAL_PART-1.1997 IS DISTORTING EXCESSIVELY.
   ELEMENT FINAL_PART-1.1999 IS DISTORTING EXCESSIVELY.
   ELEMENT FINAL_PART-1.2002 IS DISTORTING EXCESSIVELY.
   ELEMENT FINAL_PART-1.2004 IS DISTORTING EXCESSIVELY.
   ELEMENT FINAL_PART-1.2005 IS DISTORTING EXCESSIVELY.
   ELEMENT FINAL_PART-1.2006 IS DISTORTING EXCESSIVELY.
   ELEMENT FINAL_PART-1.2007 IS DISTORTING EXCESSIVELY.
   ELEMENT FINAL_PART-1.2008 IS DISTORTING EXCESSIVELY.
   ELEMENT FINAL_PART-1.2015 IS DISTORTING EXCESSIVELY.
   ELEMENT FINAL_PART-1.2018 IS DISTORTING EXCESSIVELY.
   ELEMENT FINAL_PART-1.2019 IS DISTORTING EXCESSIVELY.
   ELEMENT FINAL_PART-1.2020 IS DISTORTING EXCESSIVELY.
   ELEMENT FINAL_PART-1.2021 IS DISTORTING EXCESSIVELY.
   ELEMENT FINAL_PART-1.2022 IS DISTORTING EXCESSIVELY.
   ELEMENT FINAL_PART-1.2024 IS DISTORTING EXCESSIVELY.
   ELEMENT FINAL_PART-1.2025 IS DISTORTING EXCESSIVELY.
   ELEMENT FINAL_PART-1.2027 IS DISTORTING EXCESSIVELY.
   ELEMENT FINAL_PART-1.2028 IS DISTORTING EXCESSIVELY.
   ELEMENT FINAL_PART-1.2029 IS DISTORTING EXCESSIVELY.
   ELEMENT FINAL_PART-1.2030 IS DISTORTING EXCESSIVELY.
   ELEMENT FINAL_PART-1.2032 IS DISTORTING EXCESSIVELY.
   ELEMENT FINAL_PART-1.2034 IS DISTORTING EXCESSIVELY.
   ELEMENT FINAL_PART-1.2036 IS DISTORTING EXCESSIVELY.
   ELEMENT FINAL_PART-1.2038 IS DISTORTING EXCESSIVELY.
   ELEMENT FINAL_PART-1.2041 IS DISTORTING EXCESSIVELY.
   ELEMENT FINAL_PART-1.2042 IS DISTORTING EXCESSIVELY.
   ELEMENT FINAL_PART-1.2044 IS DISTORTING EXCESSIVELY.
   ELEMENT FINAL_PART-1.2045 IS DISTORTING EXCESSIVELY.
   ELEMENT FINAL_PART-1.2047 IS DISTORTING EXCESSIVELY.
   ELEMENT FINAL_PART-1.2048 IS DISTORTING EXCESSIVELY.
   ELEMENT FINAL_PART-1.2050 IS DISTORTING EXCESSIVELY.
   ELEMENT FINAL_PART-1.2053 IS DISTORTING EXCESSIVELY.
   ELEMENT FINAL_PART-1.2058 IS DISTORTING EXCESSIVELY.
   ELEMENT FINAL_PART-1.2060 IS DISTORTING EXCESSIVELY.
   ELEMENT FINAL_PART-1.2066 IS DISTORTING EXCESSIVELY.
   ELEMENT FINAL_PART-1.2067 IS DISTORTING EXCESSIVELY.
   ELEMENT FINAL_PART-1.2068 IS DISTORTING EXCESSIVELY.
   ELEMENT FINAL_PART-1.2071 IS DISTORTING EXCESSIVELY.
   ELEMENT FINAL_PART-1.2074 IS DISTORTING EXCESSIVELY.
   ELEMENT FINAL_PART-1.2076 IS DISTORTING EXCESSIVELY.
   ELEMENT FINAL_PART-1.2077 IS DISTORTING EXCESSIVELY.
   ELEMENT FINAL_PART-1.2080 IS DISTORTING EXCESSIVELY.
   ELEMENT FINAL_PART-1.2081 IS DISTORTING EXCESSIVELY.
   ELEMENT FINAL_PART-1.2085 IS DISTORTING EXCESSIVELY.
   ELEMENT FINAL_PART-1.2087 IS DISTORTING EXCESSIVELY.
   ELEMENT FINAL_PART-1.2088 IS DISTORTING EXCESSIVELY.
   ELEMENT FINAL_PART-1.2089 IS DISTORTING EXCESSIVELY.
   ELEMENT FINAL_PART-1.2091 IS DISTORTING EXCESSIVELY.
   ELEMENT FINAL_PART-1.2092 IS DISTORTING EXCESSIVELY.
   ELEMENT FINAL_PART-1.2093 IS DISTORTING EXCESSIVELY.
   ELEMENT FINAL_PART-1.2094 IS DISTORTING EXCESSIVELY.
   ELEMENT FINAL_PART-1.2095 IS DISTORTING EXCESSIVELY.
   ELEMENT FINAL_PART-1.2098 IS DISTORTING EXCESSIVELY.
   ELEMENT FINAL_PART-1.2099 IS DISTORTING EXCESSIVELY.
   ELEMENT FINAL_PART-1.2100 IS DISTORTING EXCESSIVELY.
   ELEMENT FINAL_PART-1.2103 IS DISTORTING EXCESSIVELY.
   ELEMENT FINAL_PART-1.2107 IS DISTORTING EXCESSIVELY.
   ELEMENT FINAL_PART-1.2108 IS DISTORTING EXCESSIVELY.
   ELEMENT FINAL_PART-1.2110 IS DISTORTING EXCESSIVELY.
   ELEMENT FINAL_PART-1.2112 IS DISTORTING EXCESSIVELY.
   ELEMENT FINAL_PART-1.2113 IS DISTORTING EXCESSIVELY.
   ELEMENT FINAL_PART-1.2116 IS DISTORTING EXCESSIVELY.
   ELEMENT FINAL_PART-1.2119 IS DISTORTING EXCESSIVELY.
   ELEMENT FINAL_PART-1.2120 IS DISTORTING EXCESSIVELY.
   ELEMENT FINAL_PART-1.2125 IS DISTORTING EXCESSIVELY.
   ELEMENT FINAL_PART-1.2130 IS DISTORTING EXCESSIVELY.
   ELEMENT FINAL_PART-1.2133 IS DISTORTING EXCESSIVELY.
   ELEMENT FINAL_PART-1.2134 IS DISTORTING EXCESSIVELY.
   ELEMENT FINAL_PART-1.2135 IS DISTORTING EXCESSIVELY.
   ELEMENT FINAL_PART-1.2138 IS DISTORTING EXCESSIVELY.
   ELEMENT FINAL_PART-1.2139 IS DISTORTING EXCESSIVELY.
   ELEMENT FINAL_PART-1.2140 IS DISTORTING EXCESSIVELY.
   ELEMENT FINAL_PART-1.2143 IS DISTORTING EXCESSIVELY.
   ELEMENT FINAL_PART-1.2148 IS DISTORTING EXCESSIVELY.
   ELEMENT FINAL_PART-1.2149 IS DISTORTING EXCESSIVELY.
   ELEMENT FINAL_PART-1.2151 IS DISTORTING EXCESSIVELY.
   ELEMENT FINAL_PART-1.2152 IS DISTORTING EXCESSIVELY.
   ELEMENT FINAL_PART-1.2153 IS DISTORTING EXCESSIVELY.
   ELEMENT FINAL_PART-1.2155 IS DISTORTING EXCESSIVELY.
   ELEMENT FINAL_PART-1.2156 IS DISTORTING EXCESSIVELY.
   ELEMENT FINAL_PART-1.2157 IS DISTORTING EXCESSIVELY.
   ELEMENT FINAL_PART-1.2163 IS DISTORTING EXCESSIVELY.
   ELEMENT FINAL_PART-1.2164 IS DISTORTING EXCESSIVELY.
   ELEMENT FINAL_PART-1.2166 IS DISTORTING EXCESSIVELY.
   ELEMENT FINAL_PART-1.2167 IS DISTORTING EXCESSIVELY.
   ELEMENT FINAL_PART-1.2169 IS DISTORTING EXCESSIVELY.
   ELEMENT FINAL_PART-1.2170 IS DISTORTING EXCESSIVELY.
   ELEMENT FINAL_PART-1.2171 IS DISTORTING EXCESSIVELY.
   ELEMENT FINAL_PART-1.2172 IS DISTORTING EXCESSIVELY.
   ELEMENT FINAL_PART-1.2173 IS DISTORTING EXCESSIVELY.
   ELEMENT FINAL_PART-1.2174 IS DISTORTING EXCESSIVELY.
   ELEMENT FINAL_PART-1.2176 IS DISTORTING EXCESSIVELY.
   ELEMENT FINAL_PART-1.2183 IS DISTORTING EXCESSIVELY.
   ELEMENT FINAL_PART-1.2185 IS DISTORTING EXCESSIVELY.
   ELEMENT FINAL_PART-1.2186 IS DISTORTING EXCESSIVELY.
   ELEMENT FINAL_PART-1.2187 IS DISTORTING EXCESSIVELY.
   ELEMENT FINAL_PART-1.2189 IS DISTORTING EXCESSIVELY.
   ELEMENT FINAL_PART-1.2191 IS DISTORTING EXCESSIVELY.
   ELEMENT FINAL_PART-1.2194 IS DISTORTING EXCESSIVELY.
   ELEMENT FINAL_PART-1.2196 IS DISTORTING EXCESSIVELY.
   ELEMENT FINAL_PART-1.2197 IS DISTORTING EXCESSIVELY.
   ELEMENT FINAL_PART-1.2198 IS DISTORTING EXCESSIVELY.
   ELEMENT FINAL_PART-1.2200 IS DISTORTING EXCESSIVELY.
   ELEMENT FINAL_PART-1.2201 IS DISTORTING EXCESSIVELY.
   ELEMENT FINAL_PART-1.2202 IS DISTORTING EXCESSIVELY.
   ELEMENT FINAL_PART-1.2204 IS DISTORTING EXCESSIVELY.
   ELEMENT FINAL_PART-1.2205 IS DISTORTING EXCESSIVELY.
   ELEMENT FINAL_PART-1.2206 IS DISTORTING EXCESSIVELY.
   ELEMENT FINAL_PART-1.2209 IS DISTORTING EXCESSIVELY.
   ELEMENT FINAL_PART-1.2212 IS DISTORTING EXCESSIVELY.
   ELEMENT FINAL_PART-1.2214 IS DISTORTING EXCESSIVELY.
   ELEMENT FINAL_PART-1.2217 IS DISTORTING EXCESSIVELY.
   ELEMENT FINAL_PART-1.2218 IS DISTORTING EXCESSIVELY.
   ELEMENT FINAL_PART-1.2219 IS DISTORTING EXCESSIVELY.
   ELEMENT FINAL_PART-1.2220 IS DISTORTING EXCESSIVELY.
   ELEMENT FINAL_PART-1.2221 IS DISTORTING EXCESSIVELY.
   ELEMENT FINAL_PART-1.2223 IS DISTORTING EXCESSIVELY.
   ELEMENT FINAL_PART-1.2224 IS DISTORTING EXCESSIVELY.
   ELEMENT FINAL_PART-1.2226 IS DISTORTING EXCESSIVELY.
   ELEMENT FINAL_PART-1.2228 IS DISTORTING EXCESSIVELY.
   ELEMENT FINAL_PART-1.2229 IS DISTORTING EXCESSIVELY.
   ELEMENT FINAL_PART-1.2230 IS DISTORTING EXCESSIVELY.
   ELEMENT FINAL_PART-1.2231 IS DISTORTING EXCESSIVELY.
   ELEMENT FINAL_PART-1.2232 IS DISTORTING EXCESSIVELY.
   ELEMENT FINAL_PART-1.2234 IS DISTORTING EXCESSIVELY.
   ELEMENT FINAL_PART-1.2235 IS DISTORTING EXCESSIVELY.
   ELEMENT FINAL_PART-1.2237 IS DISTORTING EXCESSIVELY.
   ELEMENT FINAL_PART-1.2239 IS DISTORTING EXCESSIVELY.
   ELEMENT FINAL_PART-1.2240 IS DISTORTING EXCESSIVELY.
   ELEMENT FINAL_PART-1.2242 IS DISTORTING EXCESSIVELY.
   ELEMENT FINAL_PART-1.2243 IS DISTORTING EXCESSIVELY.
   ELEMENT FINAL_PART-1.2246 IS DISTORTING EXCESSIVELY.
   ELEMENT FINAL_PART-1.2247 IS DISTORTING EXCESSIVELY.
   ELEMENT FINAL_PART-1.2249 IS DISTORTING EXCESSIVELY.
   ELEMENT FINAL_PART-1.2250 IS DISTORTING EXCESSIVELY.
   ELEMENT FINAL_PART-1.2251 IS DISTORTING EXCESSIVELY.
   ELEMENT FINAL_PART-1.2256 IS DISTORTING EXCESSIVELY.
   ELEMENT FINAL_PART-1.2258 IS DISTORTING EXCESSIVELY.
   ELEMENT FINAL_PART-1.2259 IS DISTORTING EXCESSIVELY.
   ELEMENT FINAL_PART-1.2260 IS DISTORTING EXCESSIVELY.
   ELEMENT FINAL_PART-1.2261 IS DISTORTING EXCESSIVELY.
   ELEMENT FINAL_PART-1.2262 IS DISTORTING EXCESSIVELY.
   ELEMENT FINAL_PART-1.2263 IS DISTORTING EXCESSIVELY.
   ELEMENT FINAL_PART-1.2265 IS DISTORTING EXCESSIVELY.
   ELEMENT FINAL_PART-1.2266 IS DISTORTING EXCESSIVELY.
   ELEMENT FINAL_PART-1.2267 IS DISTORTING EXCESSIVELY.
   ELEMENT FINAL_PART-1.2272 IS DISTORTING EXCESSIVELY.
   ELEMENT FINAL_PART-1.2273 IS DISTORTING EXCESSIVELY.
   ELEMENT FINAL_PART-1.2275 IS DISTORTING EXCESSIVELY.
   ELEMENT FINAL_PART-1.2277 IS DISTORTING EXCESSIVELY.
   ELEMENT FINAL_PART-1.2278 IS DISTORTING EXCESSIVELY.
   ELEMENT FINAL_PART-1.2281 IS DISTORTING EXCESSIVELY.
   ELEMENT FINAL_PART-1.2282 IS DISTORTING EXCESSIVELY.
   ELEMENT FINAL_PART-1.2285 IS DISTORTING EXCESSIVELY.
   ELEMENT FINAL_PART-1.2288 IS DISTORTING EXCESSIVELY.
   ELEMENT FINAL_PART-1.2289 IS DISTORTING EXCESSIVELY.
   ELEMENT FINAL_PART-1.2290 IS DISTORTING EXCESSIVELY.
   ELEMENT FINAL_PART-1.2291 IS DISTORTING EXCESSIVELY.
   ELEMENT FINAL_PART-1.2295 IS DISTORTING EXCESSIVELY.
   ELEMENT FINAL_PART-1.2297 IS DISTORTING EXCESSIVELY.
   ELEMENT FINAL_PART-1.2300 IS DISTORTING EXCESSIVELY.
   ELEMENT FINAL_PART-1.2302 IS DISTORTING EXCESSIVELY.
   ELEMENT FINAL_PART-1.2306 IS DISTORTING EXCESSIVELY.
   ELEMENT FINAL_PART-1.2307 IS DISTORTING EXCESSIVELY.
   ELEMENT FINAL_PART-1.2310 IS DISTORTING EXCESSIVELY.
   ELEMENT FINAL_PART-1.2311 IS DISTORTING EXCESSIVELY.
   ELEMENT FINAL_PART-1.2312 IS DISTORTING EXCESSIVELY.
   ELEMENT FINAL_PART-1.2315 IS DISTORTING EXCESSIVELY.
   ELEMENT FINAL_PART-1.2318 IS DISTORTING EXCESSIVELY.
   ELEMENT FINAL_PART-1.2319 IS DISTORTING EXCESSIVELY.
   ELEMENT FINAL_PART-1.2320 IS DISTORTING EXCESSIVELY.
   ELEMENT FINAL_PART-1.2321 IS DISTORTING EXCESSIVELY.
   ELEMENT FINAL_PART-1.2324 IS DISTORTING EXCESSIVELY.
   ELEMENT FINAL_PART-1.2326 IS DISTORTING EXCESSIVELY.
   ELEMENT FINAL_PART-1.2327 IS DISTORTING EXCESSIVELY.
   ELEMENT FINAL_PART-1.2328 IS DISTORTING EXCESSIVELY.
   ELEMENT FINAL_PART-1.2330 IS DISTORTING EXCESSIVELY.
   ELEMENT FINAL_PART-1.2331 IS DISTORTING EXCESSIVELY.
   ELEMENT FINAL_PART-1.2332 IS DISTORTING EXCESSIVELY.
   ELEMENT FINAL_PART-1.2333 IS DISTORTING EXCESSIVELY.
   ELEMENT FINAL_PART-1.2335 IS DISTORTING EXCESSIVELY.
   ELEMENT FINAL_PART-1.2336 IS DISTORTING EXCESSIVELY.
   ELEMENT FINAL_PART-1.2341 IS DISTORTING EXCESSIVELY.
   ELEMENT FINAL_PART-1.2343 IS DISTORTING EXCESSIVELY.
   ELEMENT FINAL_PART-1.2348 IS DISTORTING EXCESSIVELY.
   ELEMENT FINAL_PART-1.2350 IS DISTORTING EXCESSIVELY.
   ELEMENT FINAL_PART-1.2354 IS DISTORTING EXCESSIVELY.
   ELEMENT FINAL_PART-1.2355 IS DISTORTING EXCESSIVELY.
   ELEMENT FINAL_PART-1.2356 IS DISTORTING EXCESSIVELY.
   ELEMENT FINAL_PART-1.2357 IS DISTORTING EXCESSIVELY.
   ELEMENT FINAL_PART-1.2360 IS DISTORTING EXCESSIVELY.
   ELEMENT FINAL_PART-1.2361 IS DISTORTING EXCESSIVELY.
   ELEMENT FINAL_PART-1.2365 IS DISTORTING EXCESSIVELY.
   ELEMENT FINAL_PART-1.2367 IS DISTORTING EXCESSIVELY.
   ELEMENT FINAL_PART-1.2371 IS DISTORTING EXCESSIVELY.
   ELEMENT FINAL_PART-1.2372 IS DISTORTING EXCESSIVELY.
   ELEMENT FINAL_PART-1.2374 IS DISTORTING EXCESSIVELY.
   ELEMENT FINAL_PART-1.2375 IS DISTORTING EXCESSIVELY.
   ELEMENT FINAL_PART-1.2376 IS DISTORTING EXCESSIVELY.
   ELEMENT FINAL_PART-1.2377 IS DISTORTING EXCESSIVELY.
   ELEMENT FINAL_PART-1.2378 IS DISTORTING EXCESSIVELY.
   ELEMENT FINAL_PART-1.2379 IS DISTORTING EXCESSIVELY.
   ELEMENT FINAL_PART-1.2380 IS DISTORTING EXCESSIVELY.
   ELEMENT FINAL_PART-1.2383 IS DISTORTING EXCESSIVELY.
   ELEMENT FINAL_PART-1.2385 IS DISTORTING EXCESSIVELY.
   ELEMENT FINAL_PART-1.2386 IS DISTORTING EXCESSIVELY.
   ELEMENT FINAL_PART-1.2388 IS DISTORTING EXCESSIVELY.
   ELEMENT FINAL_PART-1.2398 IS DISTORTING EXCESSIVELY.
   ELEMENT FINAL_PART-1.2399 IS DISTORTING EXCESSIVELY.
   ELEMENT FINAL_PART-1.2400 IS DISTORTING EXCESSIVELY.
   ELEMENT FINAL_PART-1.2401 IS DISTORTING EXCESSIVELY.
   ELEMENT FINAL_PART-1.2402 IS DISTORTING EXCESSIVELY.
   ELEMENT FINAL_PART-1.2403 IS DISTORTING EXCESSIVELY.
   ELEMENT FINAL_PART-1.2404 IS DISTORTING EXCESSIVELY.
   ELEMENT FINAL_PART-1.2406 IS DISTORTING EXCESSIVELY.
   ELEMENT FINAL_PART-1.2407 IS DISTORTING EXCESSIVELY.
   ELEMENT FINAL_PART-1.2408 IS DISTORTING EXCESSIVELY.
   ELEMENT FINAL_PART-1.2409 IS DISTORTING EXCESSIVELY.
   ELEMENT FINAL_PART-1.2412 IS DISTORTING EXCESSIVELY.
   ELEMENT FINAL_PART-1.2413 IS DISTORTING EXCESSIVELY.
   ELEMENT FINAL_PART-1.2415 IS DISTORTING EXCESSIVELY.
   ELEMENT FINAL_PART-1.2418 IS DISTORTING EXCESSIVELY.
   ELEMENT FINAL_PART-1.2419 IS DISTORTING EXCESSIVELY.
   ELEMENT FINAL_PART-1.2421 IS DISTORTING EXCESSIVELY.
   ELEMENT FINAL_PART-1.2425 IS DISTORTING EXCESSIVELY.
   ELEMENT FINAL_PART-1.2427 IS DISTORTING EXCESSIVELY.
   ELEMENT FINAL_PART-1.2428 IS DISTORTING EXCESSIVELY.
   ELEMENT FINAL_PART-1.2430 IS DISTORTING EXCESSIVELY.
   ELEMENT FINAL_PART-1.2431 IS DISTORTING EXCESSIVELY.
   ELEMENT FINAL_PART-1.2432 IS DISTORTING EXCESSIVELY.
   ELEMENT FINAL_PART-1.2436 IS DISTORTING EXCESSIVELY.
   ELEMENT FINAL_PART-1.2440 IS DISTORTING EXCESSIVELY.
   ELEMENT FINAL_PART-1.2441 IS DISTORTING EXCESSIVELY.
   ELEMENT FINAL_PART-1.2442 IS DISTORTING EXCESSIVELY.
   ELEMENT FINAL_PART-1.2445 IS DISTORTING EXCESSIVELY.
   ELEMENT FINAL_PART-1.2446 IS DISTORTING EXCESSIVELY.
   ELEMENT FINAL_PART-1.2447 IS DISTORTING EXCESSIVELY.
   ELEMENT FINAL_PART-1.2452 IS DISTORTING EXCESSIVELY.
   ELEMENT FINAL_PART-1.2453 IS DISTORTING EXCESSIVELY.
   ELEMENT FINAL_PART-1.2454 IS DISTORTING EXCESSIVELY.
   ELEMENT FINAL_PART-1.2455 IS DISTORTING EXCESSIVELY.
   ELEMENT FINAL_PART-1.2456 IS DISTORTING EXCESSIVELY.
   ELEMENT FINAL_PART-1.2458 IS DISTORTING EXCESSIVELY.
   ELEMENT FINAL_PART-1.2465 IS DISTORTING EXCESSIVELY.
   ELEMENT FINAL_PART-1.2466 IS DISTORTING EXCESSIVELY.
   ELEMENT FINAL_PART-1.2468 IS DISTORTING EXCESSIVELY.
   ELEMENT FINAL_PART-1.2470 IS DISTORTING EXCESSIVELY.
   ELEMENT FINAL_PART-1.2472 IS DISTORTING EXCESSIVELY.
   ELEMENT FINAL_PART-1.2474 IS DISTORTING EXCESSIVELY.
   ELEMENT FINAL_PART-1.2475 IS DISTORTING EXCESSIVELY.
   ELEMENT FINAL_PART-1.2476 IS DISTORTING EXCESSIVELY.
   ELEMENT FINAL_PART-1.2477 IS DISTORTING EXCESSIVELY.
   ELEMENT FINAL_PART-1.2478 IS DISTORTING EXCESSIVELY.
   ELEMENT FINAL_PART-1.2484 IS DISTORTING EXCESSIVELY.
   ELEMENT FINAL_PART-1.2485 IS DISTORTING EXCESSIVELY.
   ELEMENT FINAL_PART-1.2488 IS DISTORTING EXCESSIVELY.
   ELEMENT FINAL_PART-1.2489 IS DISTORTING EXCESSIVELY.
   ELEMENT FINAL_PART-1.2491 IS DISTORTING EXCESSIVELY.
   ELEMENT FINAL_PART-1.2493 IS DISTORTING EXCESSIVELY.
   ELEMENT FINAL_PART-1.2495 IS DISTORTING EXCESSIVELY.
   ELEMENT FINAL_PART-1.2499 IS DISTORTING EXCESSIVELY.
   ELEMENT FINAL_PART-1.2501 IS DISTORTING EXCESSIVELY.
   ELEMENT FINAL_PART-1.2502 IS DISTORTING EXCESSIVELY.
   ELEMENT FINAL_PART-1.2504 IS DISTORTING EXCESSIVELY.
   ELEMENT FINAL_PART-1.2505 IS DISTORTING EXCESSIVELY.
   ELEMENT FINAL_PART-1.2508 IS DISTORTING EXCESSIVELY.
   ELEMENT FINAL_PART-1.2509 IS DISTORTING EXCESSIVELY.
   ELEMENT FINAL_PART-1.2510 IS DISTORTING EXCESSIVELY.
   ELEMENT FINAL_PART-1.2513 IS DISTORTING EXCESSIVELY.
   ELEMENT FINAL_PART-1.2514 IS DISTORTING EXCESSIVELY.
   ELEMENT FINAL_PART-1.2515 IS DISTORTING EXCESSIVELY.
   ELEMENT FINAL_PART-1.2516 IS DISTORTING EXCESSIVELY.
   ELEMENT FINAL_PART-1.2517 IS DISTORTING EXCESSIVELY.
   ELEMENT FINAL_PART-1.2518 IS DISTORTING EXCESSIVELY.
   ELEMENT FINAL_PART-1.2527 IS DISTORTING EXCESSIVELY.
   ELEMENT FINAL_PART-1.2528 IS DISTORTING EXCESSIVELY.
   ELEMENT FINAL_PART-1.2531 IS DISTORTING EXCESSIVELY.
   ELEMENT FINAL_PART-1.2532 IS DISTORTING EXCESSIVELY.
   ELEMENT FINAL_PART-1.2535 IS DISTORTING EXCESSIVELY.
   ELEMENT FINAL_PART-1.2537 IS DISTORTING EXCESSIVELY.
   ELEMENT FINAL_PART-1.2539 IS DISTORTING EXCESSIVELY.
   ELEMENT FINAL_PART-1.2541 IS DISTORTING EXCESSIVELY.
   ELEMENT FINAL_PART-1.2544 IS DISTORTING EXCESSIVELY.
   ELEMENT FINAL_PART-1.2549 IS DISTORTING EXCESSIVELY.
   ELEMENT FINAL_PART-1.2550 IS DISTORTING EXCESSIVELY.
   ELEMENT FINAL_PART-1.2551 IS DISTORTING EXCESSIVELY.
   ELEMENT FINAL_PART-1.2552 IS DISTORTING EXCESSIVELY.
   ELEMENT FINAL_PART-1.2553 IS DISTORTING EXCESSIVELY.
   ELEMENT FINAL_PART-1.2556 IS DISTORTING EXCESSIVELY.
   ELEMENT FINAL_PART-1.2557 IS DISTORTING EXCESSIVELY.
   ELEMENT FINAL_PART-1.2559 IS DISTORTING EXCESSIVELY.
   ELEMENT FINAL_PART-1.2561 IS DISTORTING EXCESSIVELY.
   ELEMENT FINAL_PART-1.2562 IS DISTORTING EXCESSIVELY.
   ELEMENT FINAL_PART-1.2563 IS DISTORTING EXCESSIVELY.
   ELEMENT FINAL_PART-1.2564 IS DISTORTING EXCESSIVELY.
   ELEMENT FINAL_PART-1.2565 IS DISTORTING EXCESSIVELY.
   ELEMENT FINAL_PART-1.2566 IS DISTORTING EXCESSIVELY.
   ELEMENT FINAL_PART-1.2568 IS DISTORTING EXCESSIVELY.
   ELEMENT FINAL_PART-1.2571 IS DISTORTING EXCESSIVELY.
   ELEMENT FINAL_PART-1.2574 IS DISTORTING EXCESSIVELY.
   ELEMENT FINAL_PART-1.2576 IS DISTORTING EXCESSIVELY.
   ELEMENT FINAL_PART-1.2578 IS DISTORTING EXCESSIVELY.
   ELEMENT FINAL_PART-1.2579 IS DISTORTING EXCESSIVELY.
   ELEMENT FINAL_PART-1.2580 IS DISTORTING EXCESSIVELY.
   ELEMENT FINAL_PART-1.2581 IS DISTORTING EXCESSIVELY.
   ELEMENT FINAL_PART-1.2583 IS DISTORTING EXCESSIVELY.
   ELEMENT FINAL_PART-1.2585 IS DISTORTING EXCESSIVELY.
   ELEMENT FINAL_PART-1.2586 IS DISTORTING EXCESSIVELY.
   ELEMENT FINAL_PART-1.2592 IS DISTORTING EXCESSIVELY.
   ELEMENT FINAL_PART-1.2593 IS DISTORTING EXCESSIVELY.
   ELEMENT FINAL_PART-1.2595 IS DISTORTING EXCESSIVELY.
   ELEMENT FINAL_PART-1.2596 IS DISTORTING EXCESSIVELY.
   ELEMENT FINAL_PART-1.2598 IS DISTORTING EXCESSIVELY.
   ELEMENT FINAL_PART-1.2599 IS DISTORTING EXCESSIVELY.
   ELEMENT FINAL_PART-1.2600 IS DISTORTING EXCESSIVELY.
   ELEMENT FINAL_PART-1.2601 IS DISTORTING EXCESSIVELY.
   ELEMENT FINAL_PART-1.2602 IS DISTORTING EXCESSIVELY.
   ELEMENT FINAL_PART-1.2603 IS DISTORTING EXCESSIVELY.
   ELEMENT FINAL_PART-1.2605 IS DISTORTING EXCESSIVELY.
   ELEMENT FINAL_PART-1.2606 IS DISTORTING EXCESSIVELY.
   ELEMENT FINAL_PART-1.2613 IS DISTORTING EXCESSIVELY.
   ELEMENT FINAL_PART-1.2616 IS DISTORTING EXCESSIVELY.
   ELEMENT FINAL_PART-1.2617 IS DISTORTING EXCESSIVELY.
[...]
   INSTANCE: FINAL_PART-1                                                                    
  CORRESPONDING RESIDUAL FORCE      7.753E-04
 LARGEST INCREMENT OF DISP.        -3.566E-03   AT NODE        120   DOF  1
   INSTANCE: FINAL_PART-1                                                                    
 LARGEST CORRECTION TO DISP.       -5.475E-06   AT NODE        120   DOF  1
   INSTANCE: FINAL_PART-1                                                                    
          FORCE     EQUILIBRIUM NOT ACHIEVED WITHIN TOLERANCE.
 
	SYMMETRIC PURE THREAD-BASED DIRECT SPARSE SOLVER RUNNING ON
 	1 HOST x 1 MPI RANK PER HOST x 1 THREAD PER RANK
        NUMBER OF EQUATIONS:  87720
        NUMBER OF RHS:        1
        NUMBER OF FLOPS:      5.701e+09
        SOLVER ELAPSED TIME:  455ms

               CONVERGENCE CHECKS FOR EQUILIBRIUM ITERATION     5


 AVERAGE FORCE                      0.250       TIME AVG. FORCE       0.127    
 LARGEST SCALED RESIDUAL FORCE     -8.915E-03   AT NODE       5640   DOF  2
   INSTANCE: FINAL_PART-1                                                                    
  CORRESPONDING RESIDUAL FORCE     -8.915E-03
 LARGEST INCREMENT OF DISP.        -3.602E-03   AT NODE        120   DOF  1
   INSTANCE: FINAL_PART-1                                                                    
 LARGEST CORRECTION TO DISP.       -3.593E-05   AT NODE        120   DOF  1
   INSTANCE: FINAL_PART-1                                                                    
          FORCE     EQUILIBRIUM NOT ACHIEVED WITHIN TOLERANCE.
 
	SYMMETRIC PURE THREAD-BASED DIRECT SPARSE SOLVER RUNNING ON
 	1 HOST x 1 MPI RANK PER HOST x 1 THREAD PER RANK
        NUMBER OF EQUATIONS:  87720
        NUMBER OF RHS:        1
        NUMBER OF FLOPS:      5.701e+09
        SOLVER ELAPSED TIME:  461ms

               CONVERGENCE CHECKS FOR EQUILIBRIUM ITERATION     6


 AVERAGE FORCE                      0.250       TIME AVG. FORCE       0.127    
 LARGEST SCALED RESIDUAL FORCE      3.636E-05   AT NODE       5428   DOF  2
   INSTANCE: FINAL_PART-1                                                                    
  CORRESPONDING RESIDUAL FORCE      3.636E-05
 LARGEST INCREMENT OF DISP.        -3.602E-03   AT NODE        120   DOF  1
   INSTANCE: FINAL_PART-1                                                                    
 LARGEST CORRECTION TO DISP.       -3.445E-07   AT NODE        113   DOF  1
   INSTANCE: FINAL_PART-1                                                                    
          THE FORCE     EQUILIBRIUM EQUATIONS HAVE CONVERGED

 ITERATION SUMMARY FOR THE INCREMENT:   6 TOTAL ITERATIONS, OF WHICH
   0 ARE SEVERE DISCONTINUITY ITERATIONS AND  6 ARE EQUILIBRIUM ITERATIONS.

 TIME INCREMENT COMPLETED  2.966E-02,  FRACTION OF STEP COMPLETED  0.939    
 STEP TIME COMPLETED       0.939    ,  TOTAL TIME COMPLETED        0.939    


  INCREMENT    29 STARTS. ATTEMPT NUMBER  1, TIME INCREMENT  2.966E-02
 
	SYMMETRIC PURE THREAD-BASED DIRECT SPARSE SOLVER RUNNING ON
 	1 HOST x 1 MPI RANK PER HOST x 1 THREAD PER RANK
        NUMBER OF EQUATIONS:  87720
        NUMBER OF RHS:        1
        NUMBER OF FLOPS:      5.701e+09
        SOLVER ELAPSED TIME:  461ms

               CONVERGENCE CHECKS FOR EQUILIBRIUM ITERATION     1


 AVERAGE FORCE                      0.258       TIME AVG. FORCE       0.131    
 LARGEST SCALED RESIDUAL FORCE       1.76       AT NODE       5640   DOF  2
   INSTANCE: FINAL_PART-1                                                                    
  CORRESPONDING RESIDUAL FORCE       1.76    
 LARGEST INCREMENT OF DISP.        -3.529E-03   AT NODE        120   DOF  1
   INSTANCE: FINAL_PART-1                                                                    
 LARGEST CORRECTION TO DISP.        3.251E-04   AT NODE        120   DOF  2
   INSTANCE: FINAL_PART-1                                                                    
          FORCE     EQUILIBRIUM NOT ACHIEVED WITHIN TOLERANCE.
 
	SYMMETRIC PURE THREAD-BASED DIRECT SPARSE SOLVER RUNNING ON
 	1 HOST x 1 MPI RANK PER HOST x 1 THREAD PER RANK
        NUMBER OF EQUATIONS:  87720
        NUMBER OF RHS:        1
        NUMBER OF FLOPS:      5.701e+09
        SOLVER ELAPSED TIME:  460ms
 

 ***WARNING: THE SYSTEM MATRIX HAS 3 NEGATIVE EIGENVALUES.
             EXPLANATIONS ARE SUGGESTED AFTER THE FIRST OCCURRENCE OF THIS MESSAGE.

               CONVERGENCE CHECKS FOR EQUILIBRIUM ITERATION     2


 AVERAGE FORCE                      0.257       TIME AVG. FORCE       0.131    
 LARGEST SCALED RESIDUAL FORCE     -1.643E-02   AT NODE       5801   DOF  3
   INSTANCE: FINAL_PART-1                                                                    
  CORRESPONDING RESIDUAL FORCE     -1.643E-02
 LARGEST INCREMENT OF DISP.        -3.522E-03   AT NODE        120   DOF  1
   INSTANCE: FINAL_PART-1                                                                    
 LARGEST CORRECTION TO DISP.        1.624E-05   AT NODE        142   DOF  2
   INSTANCE: FINAL_PART-1                                                                    
          FORCE     EQUILIBRIUM NOT ACHIEVED WITHIN TOLERANCE.
 
	SYMMETRIC PURE THREAD-BASED DIRECT SPARSE SOLVER RUNNING ON
 	1 HOST x 1 MPI RANK PER HOST x 1 THREAD PER RANK
        NUMBER OF EQUATIONS:  87720
        NUMBER OF RHS:        1
        NUMBER OF FLOPS:      5.701e+09
        SOLVER ELAPSED TIME:  454ms

               CONVERGENCE CHECKS FOR EQUILIBRIUM ITERATION     3


 AVERAGE FORCE                      0.257       TIME AVG. FORCE       0.131    
 LARGEST SCALED RESIDUAL FORCE      4.741E-02   AT NODE       5137   DOF  1
   INSTANCE: FINAL_PART-1                                                                    
  CORRESPONDING RESIDUAL FORCE      4.741E-02
 LARGEST INCREMENT OF DISP.        -3.611E-03   AT NODE        120   DOF  1
   INSTANCE: FINAL_PART-1                                                                    
 LARGEST CORRECTION TO DISP.       -9.141E-05   AT NODE        113   DOF  1
   INSTANCE: FINAL_PART-1                                                                    
          FORCE     EQUILIBRIUM NOT ACHIEVED WITHIN TOLERANCE.
 
	SYMMETRIC PURE THREAD-BASED DIRECT SPARSE SOLVER RUNNING ON
 	1 HOST x 1 MPI RANK PER HOST x 1 THREAD PER RANK
        NUMBER OF EQUATIONS:  87720
        NUMBER OF RHS:        1
        NUMBER OF FLOPS:      5.701e+09
        SOLVER ELAPSED TIME:  462ms

               CONVERGENCE CHECKS FOR EQUILIBRIUM ITERATION     4


 AVERAGE FORCE                      0.257       TIME AVG. FORCE       0.131    
 LARGEST SCALED RESIDUAL FORCE      1.023E-03   AT NODE       5137   DOF  3
   INSTANCE: FINAL_PART-1                                                                    
  CORRESPONDING RESIDUAL FORCE      1.023E-03
 LARGEST INCREMENT OF DISP.        -3.614E-03   AT NODE        120   DOF  1
   INSTANCE: FINAL_PART-1                                                                    
 LARGEST CORRECTION TO DISP.       -3.413E-06   AT NODE        120   DOF  1
   INSTANCE: FINAL_PART-1                                                                    
          FORCE     EQUILIBRIUM NOT ACHIEVED WITHIN TOLERANCE.
 
	SYMMETRIC PURE THREAD-BASED DIRECT SPARSE SOLVER RUNNING ON
 	1 HOST x 1 MPI RANK PER HOST x 1 THREAD PER RANK
        NUMBER OF EQUATIONS:  87720
        NUMBER OF RHS:        1
        NUMBER OF FLOPS:      5.701e+09
        SOLVER ELAPSED TIME:  455ms

               CONVERGENCE CHECKS FOR EQUILIBRIUM ITERATION     5


 AVERAGE FORCE                      0.257       TIME AVG. FORCE       0.131    
 LARGEST SCALED RESIDUAL FORCE     -9.573E-03   AT NODE       5640   DOF  2
   INSTANCE: FINAL_PART-1                                                                    
  CORRESPONDING RESIDUAL FORCE     -9.573E-03
 LARGEST INCREMENT OF DISP.        -3.650E-03   AT NODE        120   DOF  1
   INSTANCE: FINAL_PART-1                                                                    
 LARGEST CORRECTION TO DISP.       -3.550E-05   AT NODE        120   DOF  1
   INSTANCE: FINAL_PART-1                                                                    
          FORCE     EQUILIBRIUM NOT ACHIEVED WITHIN TOLERANCE.
 
	SYMMETRIC PURE THREAD-BASED DIRECT SPARSE SOLVER RUNNING ON
 	1 HOST x 1 MPI RANK PER HOST x 1 THREAD PER RANK
        NUMBER OF EQUATIONS:  87720
        NUMBER OF RHS:        1
        NUMBER OF FLOPS:      5.701e+09
        SOLVER ELAPSED TIME:  468ms

               CONVERGENCE CHECKS FOR EQUILIBRIUM ITERATION     6


 AVERAGE FORCE                      0.257       TIME AVG. FORCE       0.131    
 LARGEST SCALED RESIDUAL FORCE      4.030E-05   AT NODE       5428   DOF  2
   INSTANCE: FINAL_PART-1                                                                    
  CORRESPONDING RESIDUAL FORCE      4.030E-05
 LARGEST INCREMENT OF DISP.        -3.650E-03   AT NODE        120   DOF  1
   INSTANCE: FINAL_PART-1                                                                    
 LARGEST CORRECTION TO DISP.       -1.465E-07   AT NODE        100   DOF  3
   INSTANCE: FINAL_PART-1                                                                    
          THE FORCE     EQUILIBRIUM EQUATIONS HAVE CONVERGED

 ITERATION SUMMARY FOR THE INCREMENT:   6 TOTAL ITERATIONS, OF WHICH
   0 ARE SEVERE DISCONTINUITY ITERATIONS AND  6 ARE EQUILIBRIUM ITERATIONS.

 TIME INCREMENT COMPLETED  2.966E-02,  FRACTION OF STEP COMPLETED  0.969    
 STEP TIME COMPLETED       0.969    ,  TOTAL TIME COMPLETED        0.969    


  INCREMENT    30 STARTS. ATTEMPT NUMBER  1, TIME INCREMENT  2.966E-02
 
	SYMMETRIC PURE THREAD-BASED DIRECT SPARSE SOLVER RUNNING ON
 	1 HOST x 1 MPI RANK PER HOST x 1 THREAD PER RANK
        NUMBER OF EQUATIONS:  87720
        NUMBER OF RHS:        1
        NUMBER OF FLOPS:      5.701e+09
        SOLVER ELAPSED TIME:  466ms

               CONVERGENCE CHECKS FOR EQUILIBRIUM ITERATION     1


 AVERAGE FORCE                      0.265       TIME AVG. FORCE       0.136    
 LARGEST SCALED RESIDUAL FORCE       2.06       AT NODE       5640   DOF  2
   INSTANCE: FINAL_PART-1                                                                    
  CORRESPONDING RESIDUAL FORCE       2.06    
 LARGEST INCREMENT OF DISP.        -3.538E-03   AT NODE        120   DOF  1
   INSTANCE: FINAL_PART-1                                                                    
 LARGEST CORRECTION TO DISP.        3.309E-04   AT NODE        120   DOF  2
   INSTANCE: FINAL_PART-1                                                                    
          FORCE     EQUILIBRIUM NOT ACHIEVED WITHIN TOLERANCE.
 
	SYMMETRIC PURE THREAD-BASED DIRECT SPARSE SOLVER RUNNING ON
 	1 HOST x 1 MPI RANK PER HOST x 1 THREAD PER RANK
        NUMBER OF EQUATIONS:  87720
        NUMBER OF RHS:        1
        NUMBER OF FLOPS:      5.701e+09
        SOLVER ELAPSED TIME:  486ms
 

 ***WARNING: THE SYSTEM MATRIX HAS 3 NEGATIVE EIGENVALUES.
             EXPLANATIONS ARE SUGGESTED AFTER THE FIRST OCCURRENCE OF THIS MESSAGE.

               CONVERGENCE CHECKS FOR EQUILIBRIUM ITERATION     2


 AVERAGE FORCE                      0.263       TIME AVG. FORCE       0.136    
 LARGEST SCALED RESIDUAL FORCE     -2.093E-02   AT NODE       5801   DOF  3
   INSTANCE: FINAL_PART-1                                                                    
  CORRESPONDING RESIDUAL FORCE     -2.093E-02
 LARGEST INCREMENT OF DISP.        -3.532E-03   AT NODE        120   DOF  1
   INSTANCE: FINAL_PART-1                                                                    
 LARGEST CORRECTION TO DISP.        1.217E-05   AT NODE        160   DOF  2
   INSTANCE: FINAL_PART-1                                                                    
          FORCE     EQUILIBRIUM NOT ACHIEVED WITHIN TOLERANCE.
 
	SYMMETRIC PURE THREAD-BASED DIRECT SPARSE SOLVER RUNNING ON
 	1 HOST x 1 MPI RANK PER HOST x 1 THREAD PER RANK
        NUMBER OF EQUATIONS:  87720
        NUMBER OF RHS:        1
        NUMBER OF FLOPS:      5.701e+09
        SOLVER ELAPSED TIME:  466ms

               CONVERGENCE CHECKS FOR EQUILIBRIUM ITERATION     3


 AVERAGE FORCE                      0.263       TIME AVG. FORCE       0.136    
 LARGEST SCALED RESIDUAL FORCE     -6.882E-02   AT NODE       5428   DOF  2
   INSTANCE: FINAL_PART-1                                                                    
  CORRESPONDING RESIDUAL FORCE     -6.882E-02
 LARGEST INCREMENT OF DISP.        -3.632E-03   AT NODE        120   DOF  1
   INSTANCE: FINAL_PART-1                                                                    
 LARGEST CORRECTION TO DISP.       -1.022E-04   AT NODE        113   DOF  1
   INSTANCE: FINAL_PART-1                                                                    
          FORCE     EQUILIBRIUM NOT ACHIEVED WITHIN TOLERANCE.
 
	SYMMETRIC PURE THREAD-BASED DIRECT SPARSE SOLVER RUNNING ON
 	1 HOST x 1 MPI RANK PER HOST x 1 THREAD PER RANK
        NUMBER OF EQUATIONS:  87720
        NUMBER OF RHS:        1
        NUMBER OF FLOPS:      5.701e+09
        SOLVER ELAPSED TIME:  481ms

               CONVERGENCE CHECKS FOR EQUILIBRIUM ITERATION     4


 AVERAGE FORCE                      0.263       TIME AVG. FORCE       0.136    
 LARGEST SCALED RESIDUAL FORCE      1.363E-03   AT NODE       5137   DOF  3
   INSTANCE: FINAL_PART-1                                                                    
  CORRESPONDING RESIDUAL FORCE      1.363E-03
 LARGEST INCREMENT OF DISP.        -3.634E-03   AT NODE        120   DOF  1
   INSTANCE: FINAL_PART-1                                                                    
 LARGEST CORRECTION TO DISP.       -2.526E-06   AT NODE        121   DOF  1
   INSTANCE: FINAL_PART-1                                                                    
          FORCE     EQUILIBRIUM NOT ACHIEVED WITHIN TOLERANCE.
 
	SYMMETRIC PURE THREAD-BASED DIRECT SPARSE SOLVER RUNNING ON
 	1 HOST x 1 MPI RANK PER HOST x 1 THREAD PER RANK
        NUMBER OF EQUATIONS:  87720
        NUMBER OF RHS:        1
        NUMBER OF FLOPS:      5.701e+09
        SOLVER ELAPSED TIME:  472ms

               CONVERGENCE CHECKS FOR EQUILIBRIUM ITERATION     5


 AVERAGE FORCE                      0.263       TIME AVG. FORCE       0.136    
 LARGEST SCALED RESIDUAL FORCE     -1.204E-02   AT NODE       5640   DOF  2
   INSTANCE: FINAL_PART-1                                                                    
  CORRESPONDING RESIDUAL FORCE     -1.204E-02
 LARGEST INCREMENT OF DISP.        -3.672E-03   AT NODE        120   DOF  1
   INSTANCE: FINAL_PART-1                                                                    
 LARGEST CORRECTION TO DISP.       -3.869E-05   AT NODE        119   DOF  1
   INSTANCE: FINAL_PART-1                                                                    
          FORCE     EQUILIBRIUM NOT ACHIEVED WITHIN TOLERANCE.
 
	SYMMETRIC PURE THREAD-BASED DIRECT SPARSE SOLVER RUNNING ON
 	1 HOST x 1 MPI RANK PER HOST x 1 THREAD PER RANK
        NUMBER OF EQUATIONS:  87720
        NUMBER OF RHS:        1
        NUMBER OF FLOPS:      5.701e+09
        SOLVER ELAPSED TIME:  481ms

               CONVERGENCE CHECKS FOR EQUILIBRIUM ITERATION     6


 AVERAGE FORCE                      0.263       TIME AVG. FORCE       0.136    
 LARGEST SCALED RESIDUAL FORCE      5.222E-05   AT NODE       5691   DOF  3
   INSTANCE: FINAL_PART-1                                                                    
  CORRESPONDING RESIDUAL FORCE      5.222E-05
 LARGEST INCREMENT OF DISP.        -3.672E-03   AT NODE        120   DOF  1
   INSTANCE: FINAL_PART-1                                                                    
 LARGEST CORRECTION TO DISP.        2.681E-07   AT NODE       1532   DOF  1
   INSTANCE: FINAL_PART-1                                                                    
          THE FORCE     EQUILIBRIUM EQUATIONS HAVE CONVERGED

 ITERATION SUMMARY FOR THE INCREMENT:   6 TOTAL ITERATIONS, OF WHICH
   0 ARE SEVERE DISCONTINUITY ITERATIONS AND  6 ARE EQUILIBRIUM ITERATIONS.

 TIME INCREMENT COMPLETED  2.966E-02,  FRACTION OF STEP COMPLETED  0.998    
 STEP TIME COMPLETED       0.998    ,  TOTAL TIME COMPLETED        0.998    


  INCREMENT    31 STARTS. ATTEMPT NUMBER  1, TIME INCREMENT  1.709E-03
 
	SYMMETRIC PURE THREAD-BASED DIRECT SPARSE SOLVER RUNNING ON
 	1 HOST x 1 MPI RANK PER HOST x 1 THREAD PER RANK
        NUMBER OF EQUATIONS:  87720
        NUMBER OF RHS:        1
        NUMBER OF FLOPS:      5.701e+09
        SOLVER ELAPSED TIME:  471ms

               CONVERGENCE CHECKS FOR EQUILIBRIUM ITERATION     1


 AVERAGE FORCE                      0.264       TIME AVG. FORCE       0.140    
 LARGEST SCALED RESIDUAL FORCE     -3.488E-03   AT NODE        486   DOF  2
   INSTANCE: FINAL_PART-1                                                                    
  CORRESPONDING RESIDUAL FORCE     -3.488E-03
 LARGEST INCREMENT OF DISP.        -2.113E-04   AT NODE        119   DOF  1
   INSTANCE: FINAL_PART-1                                                                    
 LARGEST CORRECTION TO DISP.        1.032E-05   AT NODE        120   DOF  2
   INSTANCE: FINAL_PART-1                                                                    
          FORCE     EQUILIBRIUM NOT ACHIEVED WITHIN TOLERANCE.
 
	SYMMETRIC PURE THREAD-BASED DIRECT SPARSE SOLVER RUNNING ON
 	1 HOST x 1 MPI RANK PER HOST x 1 THREAD PER RANK
        NUMBER OF EQUATIONS:  87720
        NUMBER OF RHS:        1
        NUMBER OF FLOPS:      5.701e+09
        SOLVER ELAPSED TIME:  464ms

               CONVERGENCE CHECKS FOR EQUILIBRIUM ITERATION     2


 AVERAGE FORCE                      0.264       TIME AVG. FORCE       0.140    
 LARGEST SCALED RESIDUAL FORCE     -2.862E-04   AT NODE        474   DOF  2
   INSTANCE: FINAL_PART-1                                                                    
  CORRESPONDING RESIDUAL FORCE     -2.862E-04
 LARGEST INCREMENT OF DISP.        -2.157E-04   AT NODE        119   DOF  1
   INSTANCE: FINAL_PART-1                                                                    
 LARGEST CORRECTION TO DISP.       -4.505E-06   AT NODE        112   DOF  1
   INSTANCE: FINAL_PART-1                                                                    
 ESTIMATE OF DISP.    CORRECTION   -3.697E-07
          FORCE     EQUILIB. ACCEPTED BASED ON SMALL RESIDUAL AND ESTIMATED CORRECTION

 ITERATION SUMMARY FOR THE INCREMENT:   2 TOTAL ITERATIONS, OF WHICH
   0 ARE SEVERE DISCONTINUITY ITERATIONS AND  2 ARE EQUILIBRIUM ITERATIONS.

 TIME INCREMENT COMPLETED  1.709E-03,  FRACTION OF STEP COMPLETED   1.00    
 STEP TIME COMPLETED        1.00    ,  TOTAL TIME COMPLETED         1.00    


          THE ANALYSIS HAS BEEN COMPLETED



     ANALYSIS SUMMARY:
     TOTAL OF         31  INCREMENTS
                       4  CUTBACKS IN AUTOMATIC INCREMENTATION
                     178  ITERATIONS INCLUDING CONTACT ITERATIONS IF PRESENT
                     178  PASSES THROUGH THE EQUATION SOLVER OF WHICH 
                     178  INVOLVE MATRIX DECOMPOSITION, INCLUDING
                       0  DECOMPOSITION(S) OF THE MASS MATRIX
                       1  REORDERING OF EQUATIONS TO MINIMIZE WAVEFRONT
                       0  ADDITIONAL RESIDUAL EVALUATIONS FOR LINE SEARCHES
                       0  ADDITIONAL OPERATOR EVALUATIONS FOR LINE SEARCHES
                       1  WARNING MESSAGES DURING USER INPUT PROCESSING
                      32  WARNING MESSAGES DURING ANALYSIS
                       0  ANALYSIS WARNINGS ARE NUMERICAL PROBLEM MESSAGES
                      29  ANALYSIS WARNINGS ARE NEGATIVE EIGENVALUE MESSAGES
                       0  ERROR MESSAGES



     JOB TIME SUMMARY
       USER TIME (SEC)      =     1.03E+03
       SYSTEM TIME (SEC)    =      95.    
       TOTAL CPU TIME (SEC) =     1.13E+03
       WALLCLOCK TIME (SEC) =          261
       MEMORY PEAK (GB)     =            0
