 Abaqus/Standard 2025                  DATE 22-Feb-2026 TIME 15:38:52
 SUMMARY OF JOB INFORMATION:
 STEP  INC ATT SEVERE EQUIL TOTAL  TOTAL      STEP       INC OF       DOF    IF
               DISCON ITERS ITERS  TIME/    TIME/LPF    TIME/LPF    MONITOR RIKS
               ITERS               FREQ
   1     1   1U    0     2     2  0.00       0.00       1.000     
   1     1   2U    0     2     2  0.00       0.00       0.2500    
   1     1   3U    0     2     2  0.00       0.00       0.06250   
   1     1   4     0    10    10  0.0156     0.0156     0.01562   
   1     2   1     0     6     6  0.0312     0.0312     0.01562   
   1     3   1     0     8     8  0.0469     0.0469     0.01562   
   1     4   1     0     6     6  0.0625     0.0625     0.01562   
   1     5   1     0     4     4  0.0781     0.0781     0.01562   
   1     6   1     0     4     4  0.0938     0.0938     0.01562   
   1     7   1     0     5     5  0.117      0.117      0.02344   
   1     8   1     0     4     4  0.141      0.141      0.02344   
   1     9   1     0     4     4  0.164      0.164      0.02344   
   1    10   1     0     5     5  0.199      0.199      0.03516   
   1    11   1     0     5     5  0.234      0.234      0.03516   
   1    12   1     0     4     4  0.270      0.270      0.03516   
   1    13   1     0     4     4  0.305      0.305      0.03516   
   1    14   1     0     5     5  0.357      0.357      0.05273   
   1    15   1     0     6     6  0.410      0.410      0.05273   
   1    16   1     0     6     6  0.463      0.463      0.05273   
   1    17   1     0     6     6  0.516      0.516      0.05273   
   1    18   1     0     7     7  0.568      0.568      0.05273   
   1    19   1     0     7     7  0.621      0.621      0.05273   
   1    20   1     0     7     7  0.674      0.674      0.05273   
   1    21   1     0     5     5  0.727      0.727      0.05273   
   1    22   1U    0     6     6  0.727      0.727      0.05273   
   1    22   2     0     4     4  0.740      0.740      0.01318   
   1    23   1     0     4     4  0.753      0.753      0.01318   
   1    24   1     0     4     4  0.773      0.773      0.01978   
   1    25   1     0     4     4  0.802      0.802      0.02966   
   1    26   1     0     9     9  0.847      0.847      0.04449   
   1    27   1U    0     6     6  0.847      0.847      0.04449   
   1    27   2     0     4     4  0.858      0.858      0.01112   
   1    28   1     0     5     5  0.869      0.869      0.01112   
   1    29   1     0     4     4  0.880      0.880      0.01112   
   1    30   1     0     4     4  0.891      0.891      0.01112   
   1    31   1     0     4     4  0.908      0.908      0.01669   
   1    32   1     0     4     4  0.933      0.933      0.02503   
   1    33   1U    0     5     5  0.933      0.933      0.03754   
   1    33   2     0     4     4  0.942      0.942      0.009386  
   1    34   1     0     4     4  0.957      0.957      0.01408   
   1    35   1     0     6     6  0.978      0.978      0.02112   
   1    36   1U    0     5     5  0.978      0.978      0.02112   
   1    36   2     0     4     4  0.983      0.983      0.005279  
   1    37   1     0     2     2  0.988      0.988      0.005279  
   1    38   1     0     4     4  0.996      0.996      0.007919  
   1    39   1     0     2     2  1.00       1.00       0.003869  
                          
 THE ANALYSIS HAS COMPLETED SUCCESSFULLY
