 Abaqus/Standard 2025                  DATE 22-Feb-2026 TIME 21:42:41
 SUMMARY OF JOB INFORMATION:
 STEP  INC ATT SEVERE EQUIL TOTAL  TOTAL      STEP       INC OF       DOF    IF
               DISCON ITERS ITERS  TIME/    TIME/LPF    TIME/LPF    MONITOR RIKS
               ITERS               FREQ
   1     1   1U    0     2     2  0.00       0.00       1.000     
   1     1   2U    0     2     2  0.00       0.00       0.2500    
   1     1   3U    0     4     4  0.00       0.00       0.06250   
   1     1   4     0     9     9  0.0156     0.0156     0.01562   
   1     2   1     0     4     4  0.0312     0.0312     0.01562   
   1     3   1     0     4     4  0.0469     0.0469     0.01562   
   1     4   1     0     5     5  0.0703     0.0703     0.02344   
   1     5   1     0     5     5  0.0938     0.0938     0.02344   
   1     6   1     0     7     7  0.117      0.117      0.02344   
