 Abaqus/Standard 2025                  DATE 22-Feb-2026 TIME 03:39:42
 SUMMARY OF JOB INFORMATION:
 STEP  INC ATT SEVERE EQUIL TOTAL  TOTAL      STEP       INC OF       DOF    IF
               DISCON ITERS ITERS  TIME/    TIME/LPF    TIME/LPF    MONITOR RIKS
               ITERS               FREQ
   1     1   1U    0     2     2  0.00       0.00       1.000     
   1     1   2U    0     2     2  0.00       0.00       0.2500    
   1     1   3U    0     3     3  0.00       0.00       0.06250   
   1     1   4     0     9     9  0.0156     0.0156     0.01562   
   1     2   1     0     6     6  0.0312     0.0312     0.01562   
   1     3   1     0     6     6  0.0469     0.0469     0.01562   
   1     4   1     0     5     5  0.0625     0.0625     0.01562   
   1     5   1     0     4     4  0.0781     0.0781     0.01562   
   1     6   1     0     4     4  0.0938     0.0938     0.01562   
   1     7   1     0     4     4  0.117      0.117      0.02344   
   1     8   1     0     6     6  0.152      0.152      0.03516   
   1     9   1     0     5     5  0.188      0.188      0.03516   
   1    10   1     0     6     6  0.223      0.223      0.03516   
   1    11   1     0     4     4  0.258      0.258      0.03516   
   1    12   1     0     4     4  0.293      0.293      0.03516   
   1    13   1     0     5     5  0.346      0.346      0.05273   
   1    14   1     0     5     5  0.398      0.398      0.05273   
   1    15   1     0     5     5  0.451      0.451      0.05273   
   1    16   1     0     5     5  0.504      0.504      0.05273   
   1    17   1     0     5     5  0.557      0.557      0.05273   
   1    18   1     0     6     6  0.609      0.609      0.05273   
   1    19   1     0     6     6  0.662      0.662      0.05273   
   1    20   1     0     7     7  0.715      0.715      0.05273   
   1    21   1     0     9     9  0.768      0.768      0.05273   
   1    22   1     0     6     6  0.820      0.820      0.05273   
   1    23   1U    0     5     5  0.820      0.820      0.05273   
   1    23   2     0     6     6  0.833      0.833      0.01318   
   1    24   1     0     4     4  0.847      0.847      0.01318   
   1    25   1     0     4     4  0.860      0.860      0.01318   
   1    26   1     0     4     4  0.880      0.880      0.01978   
   1    27   1     0     6     6  0.909      0.909      0.02966   
   1    28   1     0     6     6  0.939      0.939      0.02966   
   1    29   1     0     6     6  0.969      0.969      0.02966   
   1    30   1     0     6     6  0.998      0.998      0.02966   
   1    31   1     0     2     2  1.00       1.00       0.001709  
                          
 THE ANALYSIS HAS COMPLETED SUCCESSFULLY
