1

   Abaqus 2025                                  Date 22-Feb-2026   Time 23:39:58
   For use by UNIVERSITAET STUTTGART under license from Dassault Systemes or its subsidiary.

                                                                                 
                                                                                 
 STEP    1     INCREMENT     1     STEP TIME    0.00    


                        S T E P       1     S T A T I C   A N A L Y S I S


                                                                                          

     AUTOMATIC TIME CONTROL WITH -
          A SUGGESTED INITIAL TIME INCREMENT OF                 1.00    
          AND A TOTAL TIME PERIOD OF                            1.00    
          THE MINIMUM TIME INCREMENT ALLOWED IS                1.000E-05
          THE MAXIMUM TIME INCREMENT ALLOWED IS                 1.00    

     LINEAR EQUATION SOLVER TYPE         DIRECT SPARSE

 CONVERGENCE TOLERANCE PARAMETERS FOR FORCE    
     CRITERION FOR RESIDUAL FORCE     FOR A NONLINEAR PROBLEM          5.000E-03
     CRITERION FOR DISP.    CORRECTION IN A NONLINEAR PROBLEM          1.000E-02
     INITIAL VALUE OF TIME AVERAGE FORCE                               1.000E-02
     AVERAGE FORCE     IS TIME AVERAGE FORCE    
     ALTERNATE CRIT. FOR RESIDUAL FORCE     FOR A NONLINEAR PROBLEM    2.000E-02
     CRITERION FOR ZERO FORCE     RELATIVE TO TIME AVRG. FORCE         1.000E-05
     CRITERION FOR RESIDUAL FORCE     WHEN THERE IS ZERO FLUX          1.000E-05
     CRITERION FOR DISP.    CORRECTION WHEN THERE IS ZERO FLUX         1.000E-03
     CRITERION FOR RESIDUAL FORCE     FOR A LINEAR INCREMENT           1.000E-08
     FIELD CONVERSION RATIO                                             1.00    
     CRITERION FOR ZERO FORCE     REL. TO TIME AVRG. MAX. FORCE        1.000E-05
     CRITERION FOR ZERO DISP.    RELATIVE TO CHARACTERISTIC LENGTH     1.000E-08

     VOLUMETRIC STRAIN COMPATIBILITY TOLERANCE FOR HYBRID SOLIDS       1.000E-05
     AXIAL STRAIN COMPATIBILITY TOLERANCE FOR HYBRID BEAMS             1.000E-05
     TRANS. SHEAR STRAIN COMPATIBILITY TOLERANCE FOR HYBRID BEAMS      1.000E-05
     SOFT CONTACT CONSTRAINT COMPATIBILITY TOLERANCE FOR P>P0          5.000E-03
     SOFT CONTACT CONSTRAINT COMPATIBILITY TOLERANCE FOR P=0.0         0.100    
     CONTACT FORCE ERROR TOLERANCE FOR CONVERT SDI=YES                 1.00    
     DISPLACEMENT COMPATIBILITY TOLERANCE FOR DCOUP ELEMENTS           1.000E-05
     ROTATION COMPATIBILITY TOLERANCE FOR DCOUP ELEMENTS               1.000E-05

 EQUILIBRIUM WILL BE CHECKED FOR SEVERE DISCONTINUITY ITERATIONS

 TIME INCREMENTATION CONTROL PARAMETERS:
     FIRST EQUILIBRIUM ITERATION FOR CONSECUTIVE DIVERGENCE CHECK              4
     EQUILIBRIUM ITERATION AT WHICH LOG. CONVERGENCE RATE CHECK BEGINS         8
     EQUILIBRIUM ITERATION AFTER WHICH ALTERNATE RESIDUAL IS USED              9
     MAXIMUM EQUILIBRIUM ITERATIONS ALLOWED                                   16
     EQUILIBRIUM ITERATION COUNT FOR CUT-BACK IN NEXT INCREMENT               10
     MAXIMUM EQUILIB. ITERS IN TWO INCREMENTS FOR TIME INCREMENT INCREASE      4
     MAXIMUM ITERATIONS FOR SEVERE DISCONTINUITIES                            50
     MAXIMUM ATTEMPTS ALLOWED IN AN INCREMENT                                  5
     MAXIMUM DISCON. ITERS IN TWO INCREMENTS FOR TIME INCREMENT INCREASE      50
     MAXIMUM CONTACT AUGMENTATIONS FOR *SURFACE BEHAVIOR,AUGMENTED LAGRANGE   50
     CUT-BACK FACTOR AFTER DIVERGENCE                                 0.2500    
     CUT-BACK FACTOR FOR TOO SLOW CONVERGENCE                         0.5000    
     CUT-BACK FACTOR AFTER TOO MANY EQUILIBRIUM ITERATIONS            0.7500    
     CUT-BACK FACTOR AFTER TOO MANY SEVERE DISCONTINUITY ITERATIONS   0.2500    
     CUT-BACK FACTOR AFTER PROBLEMS IN ELEMENT ASSEMBLY               0.2500    
     INCREASE FACTOR AFTER TWO INCREMENTS THAT CONVERGE QUICKLY        1.500    
     MAX. TIME INCREMENT INCREASE FACTOR ALLOWED                       1.500    
     MAX. TIME INCREMENT INCREASE FACTOR ALLOWED (DYNAMICS)            1.250    
     MAX. TIME INCREMENT INCREASE FACTOR ALLOWED (DIFFUSION)           2.000    
     MINIMUM TIME INCREMENT RATIO FOR EXTRAPOLATION TO OCCUR          0.1000    
     MAX. RATIO OF TIME INCREMENT TO STABILITY LIMIT                   1.000    
     FRACTION OF STABILITY LIMIT FOR NEW TIME INCREMENT               0.9500    
     TIME INCREMENT INCREASE FACTOR BEFORE A TIME POINT                1.000    
     GLOBAL STABILIZATION CONTROL IS NOT USED

          PRINT OF INCREMENT NUMBER, TIME, ETC., EVERY    1  INCREMENTS

     THE MAXIMUM NUMBER OF INCREMENTS IN THIS STEP IS                     100

          LARGE DISPLACEMENT THEORY WILL BE USED

     LINEAR EXTRAPOLATION WILL BE USED

     CHARACTERISTIC ELEMENT LENGTH     4.682E-04

     DETAILS REGARDING ACTUAL SOLUTION WAVEFRONT REQUESTED

     DETAILED OUTPUT OF DIAGNOSTICS TO DATABASE REQUESTED

     PRINT OF INCREMENT NUMBER, TIME, ETC., TO THE MESSAGE FILE EVERY     1  INCREMENTS

     COLLECTING MODEL CONSTRAINT INFORMATION FOR OVERCONSTRAINT CHECKS

     COLLECTING STEP CONSTRAINT INFORMATION FOR OVERCONSTRAINT CHECKS


  INCREMENT     1 STARTS. ATTEMPT NUMBER  1, TIME INCREMENT   1.00    
 
	SYMMETRIC PURE THREAD-BASED DIRECT SPARSE SOLVER RUNNING ON
 	1 HOST x 1 MPI RANK PER HOST x 1 THREAD PER RANK
        NUMBER OF EQUATIONS:  409818
        NUMBER OF RHS:        1
        NUMBER OF FLOPS:      8.048e+10
        SOLVER ELAPSED TIME:  3.3s
   ELEMENT FINAL_PART-1.225 IS DISTORTING EXCESSIVELY.
   ELEMENT FINAL_PART-1.226 IS DISTORTING EXCESSIVELY.
   ELEMENT FINAL_PART-1.227 IS DISTORTING EXCESSIVELY.
   ELEMENT FINAL_PART-1.228 IS DISTORTING EXCESSIVELY.
   ELEMENT FINAL_PART-1.229 IS DISTORTING EXCESSIVELY.
   ELEMENT FINAL_PART-1.230 IS DISTORTING EXCESSIVELY.
   ELEMENT FINAL_PART-1.231 IS DISTORTING EXCESSIVELY.
   ELEMENT FINAL_PART-1.232 IS DISTORTING EXCESSIVELY.
   ELEMENT FINAL_PART-1.233 IS DISTORTING EXCESSIVELY.
   ELEMENT FINAL_PART-1.234 IS DISTORTING EXCESSIVELY.
   ELEMENT FINAL_PART-1.235 IS DISTORTING EXCESSIVELY.
   ELEMENT FINAL_PART-1.236 IS DISTORTING EXCESSIVELY.
   ELEMENT FINAL_PART-1.237 IS DISTORTING EXCESSIVELY.
   ELEMENT FINAL_PART-1.238 IS DISTORTING EXCESSIVELY.
   ELEMENT FINAL_PART-1.239 IS DISTORTING EXCESSIVELY.
   ELEMENT FINAL_PART-1.240 IS DISTORTING EXCESSIVELY.
   ELEMENT FINAL_PART-1.241 IS DISTORTING EXCESSIVELY.
   ELEMENT FINAL_PART-1.242 IS DISTORTING EXCESSIVELY.
   ELEMENT FINAL_PART-1.243 IS DISTORTING EXCESSIVELY.
   ELEMENT FINAL_PART-1.244 IS DISTORTING EXCESSIVELY.
   ELEMENT FINAL_PART-1.245 IS DISTORTING EXCESSIVELY.
   ELEMENT FINAL_PART-1.246 IS DISTORTING EXCESSIVELY.
   ELEMENT FINAL_PART-1.247 IS DISTORTING EXCESSIVELY.
   ELEMENT FINAL_PART-1.248 IS DISTORTING EXCESSIVELY.
   ELEMENT FINAL_PART-1.249 IS DISTORTING EXCESSIVELY.
   ELEMENT FINAL_PART-1.250 IS DISTORTING EXCESSIVELY.
   ELEMENT FINAL_PART-1.251 IS DISTORTING EXCESSIVELY.
   ELEMENT FINAL_PART-1.252 IS DISTORTING EXCESSIVELY.
   ELEMENT FINAL_PART-1.253 IS DISTORTING EXCESSIVELY.
   ELEMENT FINAL_PART-1.254 IS DISTORTING EXCESSIVELY.
   ELEMENT FINAL_PART-1.255 IS DISTORTING EXCESSIVELY.
   ELEMENT FINAL_PART-1.256 IS DISTORTING EXCESSIVELY.
   ELEMENT FINAL_PART-1.257 IS DISTORTING EXCESSIVELY.
   ELEMENT FINAL_PART-1.258 IS DISTORTING EXCESSIVELY.
   ELEMENT FINAL_PART-1.259 IS DISTORTING EXCESSIVELY.
   ELEMENT FINAL_PART-1.260 IS DISTORTING EXCESSIVELY.
   ELEMENT FINAL_PART-1.261 IS DISTORTING EXCESSIVELY.
   ELEMENT FINAL_PART-1.262 IS DISTORTING EXCESSIVELY.
   ELEMENT FINAL_PART-1.263 IS DISTORTING EXCESSIVELY.
   ELEMENT FINAL_PART-1.264 IS DISTORTING EXCESSIVELY.
   ELEMENT FINAL_PART-1.265 IS DISTORTING EXCESSIVELY.
   ELEMENT FINAL_PART-1.266 IS DISTORTING EXCESSIVELY.
   ELEMENT FINAL_PART-1.267 IS DISTORTING EXCESSIVELY.
   ELEMENT FINAL_PART-1.268 IS DISTORTING EXCESSIVELY.
   ELEMENT FINAL_PART-1.269 IS DISTORTING EXCESSIVELY.
   ELEMENT FINAL_PART-1.270 IS DISTORTING EXCESSIVELY.
   ELEMENT FINAL_PART-1.271 IS DISTORTING EXCESSIVELY.
   ELEMENT FINAL_PART-1.272 IS DISTORTING EXCESSIVELY.
   ELEMENT FINAL_PART-1.273 IS DISTORTING EXCESSIVELY.
   ELEMENT FINAL_PART-1.274 IS DISTORTING EXCESSIVELY.
   ELEMENT FINAL_PART-1.275 IS DISTORTING EXCESSIVELY.
   ELEMENT FINAL_PART-1.276 IS DISTORTING EXCESSIVELY.
   ELEMENT FINAL_PART-1.277 IS DISTORTING EXCESSIVELY.
   ELEMENT FINAL_PART-1.278 IS DISTORTING EXCESSIVELY.
   ELEMENT FINAL_PART-1.279 IS DISTORTING EXCESSIVELY.
   ELEMENT FINAL_PART-1.280 IS DISTORTING EXCESSIVELY.
   ELEMENT FINAL_PART-1.281 IS DISTORTING EXCESSIVELY.
   ELEMENT FINAL_PART-1.282 IS DISTORTING EXCESSIVELY.
   ELEMENT FINAL_PART-1.283 IS DISTORTING EXCESSIVELY.
   ELEMENT FINAL_PART-1.284 IS DISTORTING EXCESSIVELY.
   ELEMENT FINAL_PART-1.285 IS DISTORTING EXCESSIVELY.
   ELEMENT FINAL_PART-1.286 IS DISTORTING EXCESSIVELY.
   ELEMENT FINAL_PART-1.287 IS DISTORTING EXCESSIVELY.
   ELEMENT FINAL_PART-1.288 IS DISTORTING EXCESSIVELY.
   ELEMENT FINAL_PART-1.289 IS DISTORTING EXCESSIVELY.
   ELEMENT FINAL_PART-1.290 IS DISTORTING EXCESSIVELY.
   ELEMENT FINAL_PART-1.291 IS DISTORTING EXCESSIVELY.
   ELEMENT FINAL_PART-1.292 IS DISTORTING EXCESSIVELY.
   ELEMENT FINAL_PART-1.293 IS DISTORTING EXCESSIVELY.
   ELEMENT FINAL_PART-1.294 IS DISTORTING EXCESSIVELY.
   ELEMENT FINAL_PART-1.295 IS DISTORTING EXCESSIVELY.
   ELEMENT FINAL_PART-1.296 IS DISTORTING EXCESSIVELY.
   ELEMENT FINAL_PART-1.297 IS DISTORTING EXCESSIVELY.
   ELEMENT FINAL_PART-1.298 IS DISTORTING EXCESSIVELY.
   ELEMENT FINAL_PART-1.299 IS DISTORTING EXCESSIVELY.
   ELEMENT FINAL_PART-1.300 IS DISTORTING EXCESSIVELY.
   ELEMENT FINAL_PART-1.301 IS DISTORTING EXCESSIVELY.
   ELEMENT FINAL_PART-1.302 IS DISTORTING EXCESSIVELY.
   ELEMENT FINAL_PART-1.303 IS DISTORTING EXCESSIVELY.
   ELEMENT FINAL_PART-1.304 IS DISTORTING EXCESSIVELY.
   ELEMENT FINAL_PART-1.305 IS DISTORTING EXCESSIVELY.
   ELEMENT FINAL_PART-1.306 IS DISTORTING EXCESSIVELY.
   ELEMENT FINAL_PART-1.307 IS DISTORTING EXCESSIVELY.
   ELEMENT FINAL_PART-1.308 IS DISTORTING EXCESSIVELY.
   ELEMENT FINAL_PART-1.309 IS DISTORTING EXCESSIVELY.
   ELEMENT FINAL_PART-1.310 IS DISTORTING EXCESSIVELY.
   ELEMENT FINAL_PART-1.311 IS DISTORTING EXCESSIVELY.
   ELEMENT FINAL_PART-1.312 IS DISTORTING EXCESSIVELY.
   ELEMENT FINAL_PART-1.313 IS DISTORTING EXCESSIVELY.
   ELEMENT FINAL_PART-1.314 IS DISTORTING EXCESSIVELY.
   ELEMENT FINAL_PART-1.315 IS DISTORTING EXCESSIVELY.
   ELEMENT FINAL_PART-1.316 IS DISTORTING EXCESSIVELY.
   ELEMENT FINAL_PART-1.317 IS DISTORTING EXCESSIVELY.
   ELEMENT FINAL_PART-1.318 IS DISTORTING EXCESSIVELY.
   ELEMENT FINAL_PART-1.319 IS DISTORTING EXCESSIVELY.
   ELEMENT FINAL_PART-1.320 IS DISTORTING EXCESSIVELY.
   ELEMENT FINAL_PART-1.321 IS DISTORTING EXCESSIVELY.
   ELEMENT FINAL_PART-1.322 IS DISTORTING EXCESSIVELY.
   ELEMENT FINAL_PART-1.323 IS DISTORTING EXCESSIVELY.

 ***WARNING: EXCESSIVE DISTORTION AT A TOTAL OF 99 INTEGRATION POINTS IN SOLID 
             (CONTINUUM) ELEMENTS
 

 ***NOTE: ELEMENTS ARE DISTORTING EXCESSIVELY. CONVERGENCE IS JUDGED UNLIKELY.


  INCREMENT     1 STARTS. ATTEMPT NUMBER  2, TIME INCREMENT  0.250    
 
	SYMMETRIC PURE THREAD-BASED DIRECT SPARSE SOLVER RUNNING ON
 	1 HOST x 1 MPI RANK PER HOST x 1 THREAD PER RANK
        NUMBER OF EQUATIONS:  409818
        NUMBER OF RHS:        1
        NUMBER OF FLOPS:      8.048e+10
        SOLVER ELAPSED TIME:  5.8s

               CONVERGENCE CHECKS FOR EQUILIBRIUM ITERATION     1


 AVERAGE FORCE                       715.       TIME AVG. FORCE        715.    
 LARGEST SCALED RESIDUAL FORCE      1.146E+04   AT NODE      45814   DOF  1
   INSTANCE: FINAL_PART-1                                                                    
  CORRESPONDING RESIDUAL FORCE      1.146E+04
 LARGEST INCREMENT OF DISP.        -0.117       AT NODE        289   DOF  3
   INSTANCE: FINAL_PART-1                                                                    
 LARGEST CORRECTION TO DISP.       -0.117       AT NODE        289   DOF  3
   INSTANCE: FINAL_PART-1                                                                    
          FORCE     EQUILIBRIUM NOT ACHIEVED WITHIN TOLERANCE.
 
	SYMMETRIC PURE THREAD-BASED DIRECT SPARSE SOLVER RUNNING ON
 	1 HOST x 1 MPI RANK PER HOST x 1 THREAD PER RANK
        NUMBER OF EQUATIONS:  409818
        NUMBER OF RHS:        1
        NUMBER OF FLOPS:      8.048e+10
        SOLVER ELAPSED TIME:  5.4s
 

 ***WARNING: THE SYSTEM MATRIX HAS 178191 NEGATIVE EIGENVALUES.

     NEGATIVE EIGENVALUES MEAN THAT THE SYSTEM MATRIX IS NOT 
     POSITIVE DEFINITE:
     FOR EXAMPLE, A BIFURCATION (BUCKLING) LOAD MAY HAVE BEEN EXCEEDED.
   ELEMENT FINAL_PART-1.3 IS DISTORTING EXCESSIVELY.
   ELEMENT FINAL_PART-1.4 IS DISTORTING EXCESSIVELY.
   ELEMENT FINAL_PART-1.5 IS DISTORTING EXCESSIVELY.
   ELEMENT FINAL_PART-1.9 IS DISTORTING EXCESSIVELY.
   ELEMENT FINAL_PART-1.10 IS DISTORTING EXCESSIVELY.
   ELEMENT FINAL_PART-1.11 IS DISTORTING EXCESSIVELY.
   ELEMENT FINAL_PART-1.14 IS DISTORTING EXCESSIVELY.
   ELEMENT FINAL_PART-1.15 IS DISTORTING EXCESSIVELY.
   ELEMENT FINAL_PART-1.16 IS DISTORTING EXCESSIVELY.
   ELEMENT FINAL_PART-1.20 IS DISTORTING EXCESSIVELY.
   ELEMENT FINAL_PART-1.21 IS DISTORTING EXCESSIVELY.
   ELEMENT FINAL_PART-1.26 IS DISTORTING EXCESSIVELY.
   ELEMENT FINAL_PART-1.27 IS DISTORTING EXCESSIVELY.
   ELEMENT FINAL_PART-1.28 IS DISTORTING EXCESSIVELY.
   ELEMENT FINAL_PART-1.31 IS DISTORTING EXCESSIVELY.
   ELEMENT FINAL_PART-1.32 IS DISTORTING EXCESSIVELY.
   ELEMENT FINAL_PART-1.34 IS DISTORTING EXCESSIVELY.
   ELEMENT FINAL_PART-1.36 IS DISTORTING EXCESSIVELY.
   ELEMENT FINAL_PART-1.37 IS DISTORTING EXCESSIVELY.
   ELEMENT FINAL_PART-1.38 IS DISTORTING EXCESSIVELY.
   ELEMENT FINAL_PART-1.40 IS DISTORTING EXCESSIVELY.
   ELEMENT FINAL_PART-1.43 IS DISTORTING EXCESSIVELY.
   ELEMENT FINAL_PART-1.44 IS DISTORTING EXCESSIVELY.
   ELEMENT FINAL_PART-1.45 IS DISTORTING EXCESSIVELY.
   ELEMENT FINAL_PART-1.46 IS DISTORTING EXCESSIVELY.
   ELEMENT FINAL_PART-1.48 IS DISTORTING EXCESSIVELY.
   ELEMENT FINAL_PART-1.49 IS DISTORTING EXCESSIVELY.
   ELEMENT FINAL_PART-1.55 IS DISTORTING EXCESSIVELY.
   ELEMENT FINAL_PART-1.57 IS DISTORTING EXCESSIVELY.
   ELEMENT FINAL_PART-1.58 IS DISTORTING EXCESSIVELY.
   ELEMENT FINAL_PART-1.60 IS DISTORTING EXCESSIVELY.
   ELEMENT FINAL_PART-1.62 IS DISTORTING EXCESSIVELY.
   ELEMENT FINAL_PART-1.63 IS DISTORTING EXCESSIVELY.
   ELEMENT FINAL_PART-1.65 IS DISTORTING EXCESSIVELY.
   ELEMENT FINAL_PART-1.67 IS DISTORTING EXCESSIVELY.
   ELEMENT FINAL_PART-1.68 IS DISTORTING EXCESSIVELY.
   ELEMENT FINAL_PART-1.70 IS DISTORTING EXCESSIVELY.
   ELEMENT FINAL_PART-1.72 IS DISTORTING EXCESSIVELY.
   ELEMENT FINAL_PART-1.73 IS DISTORTING EXCESSIVELY.
   ELEMENT FINAL_PART-1.74 IS DISTORTING EXCESSIVELY.
   ELEMENT FINAL_PART-1.77 IS DISTORTING EXCESSIVELY.
   ELEMENT FINAL_PART-1.79 IS DISTORTING EXCESSIVELY.
   ELEMENT FINAL_PART-1.82 IS DISTORTING EXCESSIVELY.
   ELEMENT FINAL_PART-1.83 IS DISTORTING EXCESSIVELY.
   ELEMENT FINAL_PART-1.85 IS DISTORTING EXCESSIVELY.
   ELEMENT FINAL_PART-1.87 IS DISTORTING EXCESSIVELY.
   ELEMENT FINAL_PART-1.90 IS DISTORTING EXCESSIVELY.
   ELEMENT FINAL_PART-1.93 IS DISTORTING EXCESSIVELY.
   ELEMENT FINAL_PART-1.94 IS DISTORTING EXCESSIVELY.
   ELEMENT FINAL_PART-1.99 IS DISTORTING EXCESSIVELY.
   ELEMENT FINAL_PART-1.102 IS DISTORTING EXCESSIVELY.
   ELEMENT FINAL_PART-1.104 IS DISTORTING EXCESSIVELY.
   ELEMENT FINAL_PART-1.108 IS DISTORTING EXCESSIVELY.
   ELEMENT FINAL_PART-1.109 IS DISTORTING EXCESSIVELY.
   ELEMENT FINAL_PART-1.111 IS DISTORTING EXCESSIVELY.
   ELEMENT FINAL_PART-1.112 IS DISTORTING EXCESSIVELY.
   ELEMENT FINAL_PART-1.114 IS DISTORTING EXCESSIVELY.
   ELEMENT FINAL_PART-1.115 IS DISTORTING EXCESSIVELY.
   ELEMENT FINAL_PART-1.120 IS DISTORTING EXCESSIVELY.
   ELEMENT FINAL_PART-1.121 IS DISTORTING EXCESSIVELY.
   ELEMENT FINAL_PART-1.123 IS DISTORTING EXCESSIVELY.
   ELEMENT FINAL_PART-1.124 IS DISTORTING EXCESSIVELY.
   ELEMENT FINAL_PART-1.125 IS DISTORTING EXCESSIVELY.
   ELEMENT FINAL_PART-1.127 IS DISTORTING EXCESSIVELY.
   ELEMENT FINAL_PART-1.128 IS DISTORTING EXCESSIVELY.
   ELEMENT FINAL_PART-1.129 IS DISTORTING EXCESSIVELY.
   ELEMENT FINAL_PART-1.134 IS DISTORTING EXCESSIVELY.
   ELEMENT FINAL_PART-1.136 IS DISTORTING EXCESSIVELY.
   ELEMENT FINAL_PART-1.137 IS DISTORTING EXCESSIVELY.
   ELEMENT FINAL_PART-1.138 IS DISTORTING EXCESSIVELY.
   ELEMENT FINAL_PART-1.140 IS DISTORTING EXCESSIVELY.
   ELEMENT FINAL_PART-1.141 IS DISTORTING EXCESSIVELY.
   ELEMENT FINAL_PART-1.142 IS DISTORTING EXCESSIVELY.
   ELEMENT FINAL_PART-1.143 IS DISTORTING EXCESSIVELY.
   ELEMENT FINAL_PART-1.144 IS DISTORTING EXCESSIVELY.
   ELEMENT FINAL_PART-1.146 IS DISTORTING EXCESSIVELY.
   ELEMENT FINAL_PART-1.148 IS DISTORTING EXCESSIVELY.
   ELEMENT FINAL_PART-1.149 IS DISTORTING EXCESSIVELY.
   ELEMENT FINAL_PART-1.152 IS DISTORTING EXCESSIVELY.
   ELEMENT FINAL_PART-1.153 IS DISTORTING EXCESSIVELY.
   ELEMENT FINAL_PART-1.154 IS DISTORTING EXCESSIVELY.
   ELEMENT FINAL_PART-1.156 IS DISTORTING EXCESSIVELY.
   ELEMENT FINAL_PART-1.157 IS DISTORTING EXCESSIVELY.
   ELEMENT FINAL_PART-1.158 IS DISTORTING EXCESSIVELY.
   ELEMENT FINAL_PART-1.163 IS DISTORTING EXCESSIVELY.
   ELEMENT FINAL_PART-1.168 IS DISTORTING EXCESSIVELY.
   ELEMENT FINAL_PART-1.169 IS DISTORTING EXCESSIVELY.
   ELEMENT FINAL_PART-1.170 IS DISTORTING EXCESSIVELY.
   ELEMENT FINAL_PART-1.174 IS DISTORTING EXCESSIVELY.
   ELEMENT FINAL_PART-1.175 IS DISTORTING EXCESSIVELY.
   ELEMENT FINAL_PART-1.176 IS DISTORTING EXCESSIVELY.
   ELEMENT FINAL_PART-1.178 IS DISTORTING EXCESSIVELY.
   ELEMENT FINAL_PART-1.180 IS DISTORTING EXCESSIVELY.
   ELEMENT FINAL_PART-1.187 IS DISTORTING EXCESSIVELY.
   ELEMENT FINAL_PART-1.189 IS DISTORTING EXCESSIVELY.
   ELEMENT FINAL_PART-1.191 IS DISTORTING EXCESSIVELY.
   ELEMENT FINAL_PART-1.193 IS DISTORTING EXCESSIVELY.
   ELEMENT FINAL_PART-1.195 IS DISTORTING EXCESSIVELY.
   ELEMENT FINAL_PART-1.197 IS DISTORTING EXCESSIVELY.
   ELEMENT FINAL_PART-1.198 IS DISTORTING EXCESSIVELY.
   ELEMENT FINAL_PART-1.202 IS DISTORTING EXCESSIVELY.
   ELEMENT FINAL_PART-1.204 IS DISTORTING EXCESSIVELY.
   ELEMENT FINAL_PART-1.205 IS DISTORTING EXCESSIVELY.
   ELEMENT FINAL_PART-1.209 IS DISTORTING EXCESSIVELY.
   ELEMENT FINAL_PART-1.216 IS DISTORTING EXCESSIVELY.
   ELEMENT FINAL_PART-1.218 IS DISTORTING EXCESSIVELY.
   ELEMENT FINAL_PART-1.219 IS DISTORTING EXCESSIVELY.
   ELEMENT FINAL_PART-1.220 IS DISTORTING EXCESSIVELY.
   ELEMENT FINAL_PART-1.221 IS DISTORTING EXCESSIVELY.
   ELEMENT FINAL_PART-1.223 IS DISTORTING EXCESSIVELY.
   ELEMENT FINAL_PART-1.225 IS DISTORTING EXCESSIVELY.
   ELEMENT FINAL_PART-1.226 IS DISTORTING EXCESSIVELY.
   ELEMENT FINAL_PART-1.229 IS DISTORTING EXCESSIVELY.
   ELEMENT FINAL_PART-1.230 IS DISTORTING EXCESSIVELY.
   ELEMENT FINAL_PART-1.231 IS DISTORTING EXCESSIVELY.
   ELEMENT FINAL_PART-1.232 IS DISTORTING EXCESSIVELY.
   ELEMENT FINAL_PART-1.236 IS DISTORTING EXCESSIVELY.
   ELEMENT FINAL_PART-1.240 IS DISTORTING EXCESSIVELY.
   ELEMENT FINAL_PART-1.242 IS DISTORTING EXCESSIVELY.
   ELEMENT FINAL_PART-1.244 IS DISTORTING EXCESSIVELY.
   ELEMENT FINAL_PART-1.245 IS DISTORTING EXCESSIVELY.
   ELEMENT FINAL_PART-1.246 IS DISTORTING EXCESSIVELY.
   ELEMENT FINAL_PART-1.252 IS DISTORTING EXCESSIVELY.
   ELEMENT FINAL_PART-1.254 IS DISTORTING EXCESSIVELY.
   ELEMENT FINAL_PART-1.255 IS DISTORTING EXCESSIVELY.
   ELEMENT FINAL_PART-1.259 IS DISTORTING EXCESSIVELY.
   ELEMENT FINAL_PART-1.264 IS DISTORTING EXCESSIVELY.
   ELEMENT FINAL_PART-1.265 IS DISTORTING EXCESSIVELY.
   ELEMENT FINAL_PART-1.267 IS DISTORTING EXCESSIVELY.
   ELEMENT FINAL_PART-1.272 IS DISTORTING EXCESSIVELY.
   ELEMENT FINAL_PART-1.273 IS DISTORTING EXCESSIVELY.
   ELEMENT FINAL_PART-1.275 IS DISTORTING EXCESSIVELY.
   ELEMENT FINAL_PART-1.276 IS DISTORTING EXCESSIVELY.
   ELEMENT FINAL_PART-1.284 IS DISTORTING EXCESSIVELY.
   ELEMENT FINAL_PART-1.285 IS DISTORTING EXCESSIVELY.
   ELEMENT FINAL_PART-1.291 IS DISTORTING EXCESSIVELY.
   ELEMENT FINAL_PART-1.292 IS DISTORTING EXCESSIVELY.
   ELEMENT FINAL_PART-1.293 IS DISTORTING EXCESSIVELY.
   ELEMENT FINAL_PART-1.294 IS DISTORTING EXCESSIVELY.
   ELEMENT FINAL_PART-1.295 IS DISTORTING EXCESSIVELY.
   ELEMENT FINAL_PART-1.296 IS DISTORTING EXCESSIVELY.
   ELEMENT FINAL_PART-1.297 IS DISTORTING EXCESSIVELY.
   ELEMENT FINAL_PART-1.298 IS DISTORTING EXCESSIVELY.
   ELEMENT FINAL_PART-1.300 IS DISTORTING EXCESSIVELY.
   ELEMENT FINAL_PART-1.301 IS DISTORTING EXCESSIVELY.
   ELEMENT FINAL_PART-1.303 IS DISTORTING EXCESSIVELY.
   ELEMENT FINAL_PART-1.305 IS DISTORTING EXCESSIVELY.
   ELEMENT FINAL_PART-1.310 IS DISTORTING EXCESSIVELY.
   ELEMENT FINAL_PART-1.313 IS DISTORTING EXCESSIVELY.
   ELEMENT FINAL_PART-1.315 IS DISTORTING EXCESSIVELY.
   ELEMENT FINAL_PART-1.316 IS DISTORTING EXCESSIVELY.
   ELEMENT FINAL_PART-1.318 IS DISTORTING EXCESSIVELY.
   ELEMENT FINAL_PART-1.320 IS DISTORTING EXCESSIVELY.
   ELEMENT FINAL_PART-1.322 IS DISTORTING EXCESSIVELY.
   ELEMENT FINAL_PART-1.327 IS DISTORTING EXCESSIVELY.
   ELEMENT FINAL_PART-1.329 IS DISTORTING EXCESSIVELY.
   ELEMENT FINAL_PART-1.330 IS DISTORTING EXCESSIVELY.
   ELEMENT FINAL_PART-1.331 IS DISTORTING EXCESSIVELY.
   ELEMENT FINAL_PART-1.333 IS DISTORTING EXCESSIVELY.
   ELEMENT FINAL_PART-1.336 IS DISTORTING EXCESSIVELY.
   ELEMENT FINAL_PART-1.342 IS DISTORTING EXCESSIVELY.
   ELEMENT FINAL_PART-1.343 IS DISTORTING EXCESSIVELY.
   ELEMENT FINAL_PART-1.344 IS DISTORTING EXCESSIVELY.
   ELEMENT FINAL_PART-1.346 IS DISTORTING EXCESSIVELY.
   ELEMENT FINAL_PART-1.347 IS DISTORTING EXCESSIVELY.
   ELEMENT FINAL_PART-1.348 IS DISTORTING EXCESSIVELY.
   ELEMENT FINAL_PART-1.349 IS DISTORTING EXCESSIVELY.
   ELEMENT FINAL_PART-1.351 IS DISTORTING EXCESSIVELY.
   ELEMENT FINAL_PART-1.352 IS DISTORTING EXCESSIVELY.
   ELEMENT FINAL_PART-1.354 IS DISTORTING EXCESSIVELY.
   ELEMENT FINAL_PART-1.355 IS DISTORTING EXCESSIVELY.
   ELEMENT FINAL_PART-1.357 IS DISTORTING EXCESSIVELY.
   ELEMENT FINAL_PART-1.358 IS DISTORTING EXCESSIVELY.
   ELEMENT FINAL_PART-1.360 IS DISTORTING EXCESSIVELY.
   ELEMENT FINAL_PART-1.361 IS DISTORTING EXCESSIVELY.
   ELEMENT FINAL_PART-1.363 IS DISTORTING EXCESSIVELY.
   ELEMENT FINAL_PART-1.364 IS DISTORTING EXCESSIVELY.
   ELEMENT FINAL_PART-1.368 IS DISTORTING EXCESSIVELY.
   ELEMENT FINAL_PART-1.372 IS DISTORTING EXCESSIVELY.
   ELEMENT FINAL_PART-1.379 IS DISTORTING EXCESSIVELY.
   ELEMENT FINAL_PART-1.380 IS DISTORTING EXCESSIVELY.
   ELEMENT FINAL_PART-1.382 IS DISTORTING EXCESSIVELY.
   ELEMENT FINAL_PART-1.385 IS DISTORTING EXCESSIVELY.
   ELEMENT FINAL_PART-1.386 IS DISTORTING EXCESSIVELY.
   ELEMENT FINAL_PART-1.388 IS DISTORTING EXCESSIVELY.
   ELEMENT FINAL_PART-1.390 IS DISTORTING EXCESSIVELY.
   ELEMENT FINAL_PART-1.394 IS DISTORTING EXCESSIVELY.
   ELEMENT FINAL_PART-1.395 IS DISTORTING EXCESSIVELY.
   ELEMENT FINAL_PART-1.401 IS DISTORTING EXCESSIVELY.
   ELEMENT FINAL_PART-1.404 IS DISTORTING EXCESSIVELY.
   ELEMENT FINAL_PART-1.406 IS DISTORTING EXCESSIVELY.
   ELEMENT FINAL_PART-1.407 IS DISTORTING EXCESSIVELY.
   ELEMENT FINAL_PART-1.410 IS DISTORTING EXCESSIVELY.
   ELEMENT FINAL_PART-1.413 IS DISTORTING EXCESSIVELY.
   ELEMENT FINAL_PART-1.414 IS DISTORTING EXCESSIVELY.
   ELEMENT FINAL_PART-1.417 IS DISTORTING EXCESSIVELY.
   ELEMENT FINAL_PART-1.420 IS DISTORTING EXCESSIVELY.
   ELEMENT FINAL_PART-1.421 IS DISTORTING EXCESSIVELY.
   ELEMENT FINAL_PART-1.422 IS DISTORTING EXCESSIVELY.
   ELEMENT FINAL_PART-1.423 IS DISTORTING EXCESSIVELY.
   ELEMENT FINAL_PART-1.424 IS DISTORTING EXCESSIVELY.
   ELEMENT FINAL_PART-1.425 IS DISTORTING EXCESSIVELY.
   ELEMENT FINAL_PART-1.429 IS DISTORTING EXCESSIVELY.
   ELEMENT FINAL_PART-1.432 IS DISTORTING EXCESSIVELY.
   ELEMENT FINAL_PART-1.434 IS DISTORTING EXCESSIVELY.
   ELEMENT FINAL_PART-1.435 IS DISTORTING EXCESSIVELY.
   ELEMENT FINAL_PART-1.437 IS DISTORTING EXCESSIVELY.
   ELEMENT FINAL_PART-1.438 IS DISTORTING EXCESSIVELY.
   ELEMENT FINAL_PART-1.439 IS DISTORTING EXCESSIVELY.
   ELEMENT FINAL_PART-1.441 IS DISTORTING EXCESSIVELY.
   ELEMENT FINAL_PART-1.443 IS DISTORTING EXCESSIVELY.
   ELEMENT FINAL_PART-1.444 IS DISTORTING EXCESSIVELY.
   ELEMENT FINAL_PART-1.446 IS DISTORTING EXCESSIVELY.
   ELEMENT FINAL_PART-1.449 IS DISTORTING EXCESSIVELY.
   ELEMENT FINAL_PART-1.450 IS DISTORTING EXCESSIVELY.
   ELEMENT FINAL_PART-1.457 IS DISTORTING EXCESSIVELY.
   ELEMENT FINAL_PART-1.458 IS DISTORTING EXCESSIVELY.
   ELEMENT FINAL_PART-1.459 IS DISTORTING EXCESSIVELY.
   ELEMENT FINAL_PART-1.460 IS DISTORTING EXCESSIVELY.
   ELEMENT FINAL_PART-1.463 IS DISTORTING EXCESSIVELY.
   ELEMENT FINAL_PART-1.466 IS DISTORTING EXCESSIVELY.
   ELEMENT FINAL_PART-1.467 IS DISTORTING EXCESSIVELY.
   ELEMENT FINAL_PART-1.468 IS DISTORTING EXCESSIVELY.
   ELEMENT FINAL_PART-1.469 IS DISTORTING EXCESSIVELY.
   ELEMENT FINAL_PART-1.470 IS DISTORTING EXCESSIVELY.
   ELEMENT FINAL_PART-1.471 IS DISTORTING EXCESSIVELY.
   ELEMENT FINAL_PART-1.472 IS DISTORTING EXCESSIVELY.
   ELEMENT FINAL_PART-1.473 IS DISTORTING EXCESSIVELY.
   ELEMENT FINAL_PART-1.474 IS DISTORTING EXCESSIVELY.
   ELEMENT FINAL_PART-1.475 IS DISTORTING EXCESSIVELY.
   ELEMENT FINAL_PART-1.477 IS DISTORTING EXCESSIVELY.
   ELEMENT FINAL_PART-1.478 IS DISTORTING EXCESSIVELY.
   ELEMENT FINAL_PART-1.479 IS DISTORTING EXCESSIVELY.
   ELEMENT FINAL_PART-1.482 IS DISTORTING EXCESSIVELY.
   ELEMENT FINAL_PART-1.486 IS DISTORTING EXCESSIVELY.
   ELEMENT FINAL_PART-1.489 IS DISTORTING EXCESSIVELY.
   ELEMENT FINAL_PART-1.491 IS DISTORTING EXCESSIVELY.
   ELEMENT FINAL_PART-1.492 IS DISTORTING EXCESSIVELY.
   ELEMENT FINAL_PART-1.493 IS DISTORTING EXCESSIVELY.
   ELEMENT FINAL_PART-1.494 IS DISTORTING EXCESSIVELY.
   ELEMENT FINAL_PART-1.497 IS DISTORTING EXCESSIVELY.
   ELEMENT FINAL_PART-1.498 IS DISTORTING EXCESSIVELY.
   ELEMENT FINAL_PART-1.500 IS DISTORTING EXCESSIVELY.
   ELEMENT FINAL_PART-1.501 IS DISTORTING EXCESSIVELY.
   ELEMENT FINAL_PART-1.506 IS DISTORTING EXCESSIVELY.
   ELEMENT FINAL_PART-1.511 IS DISTORTING EXCESSIVELY.
   ELEMENT FINAL_PART-1.513 IS DISTORTING EXCESSIVELY.
   ELEMENT FINAL_PART-1.518 IS DISTORTING EXCESSIVELY.
   ELEMENT FINAL_PART-1.520 IS DISTORTING EXCESSIVELY.
   ELEMENT FINAL_PART-1.521 IS DISTORTING EXCESSIVELY.
   ELEMENT FINAL_PART-1.522 IS DISTORTING EXCESSIVELY.
   ELEMENT FINAL_PART-1.524 IS DISTORTING EXCESSIVELY.
   ELEMENT FINAL_PART-1.525 IS DISTORTING EXCESSIVELY.
   ELEMENT FINAL_PART-1.527 IS DISTORTING EXCESSIVELY.
   ELEMENT FINAL_PART-1.528 IS DISTORTING EXCESSIVELY.
   ELEMENT FINAL_PART-1.531 IS DISTORTING EXCESSIVELY.
   ELEMENT FINAL_PART-1.532 IS DISTORTING EXCESSIVELY.
   ELEMENT FINAL_PART-1.534 IS DISTORTING EXCESSIVELY.
   ELEMENT FINAL_PART-1.535 IS DISTORTING EXCESSIVELY.
   ELEMENT FINAL_PART-1.537 IS DISTORTING EXCESSIVELY.
   ELEMENT FINAL_PART-1.538 IS DISTORTING EXCESSIVELY.
   ELEMENT FINAL_PART-1.540 IS DISTORTING EXCESSIVELY.
   ELEMENT FINAL_PART-1.541 IS DISTORTING EXCESSIVELY.
   ELEMENT FINAL_PART-1.545 IS DISTORTING EXCESSIVELY.
   ELEMENT FINAL_PART-1.546 IS DISTORTING EXCESSIVELY.
   ELEMENT FINAL_PART-1.547 IS DISTORTING EXCESSIVELY.
   ELEMENT FINAL_PART-1.548 IS DISTORTING EXCESSIVELY.
   ELEMENT FINAL_PART-1.551 IS DISTORTING EXCESSIVELY.
   ELEMENT FINAL_PART-1.552 IS DISTORTING EXCESSIVELY.
   ELEMENT FINAL_PART-1.553 IS DISTORTING EXCESSIVELY.
   ELEMENT FINAL_PART-1.554 IS DISTORTING EXCESSIVELY.
   ELEMENT FINAL_PART-1.555 IS DISTORTING EXCESSIVELY.
   ELEMENT FINAL_PART-1.558 IS DISTORTING EXCESSIVELY.
   ELEMENT FINAL_PART-1.561 IS DISTORTING EXCESSIVELY.
   ELEMENT FINAL_PART-1.562 IS DISTORTING EXCESSIVELY.
   ELEMENT FINAL_PART-1.567 IS DISTORTING EXCESSIVELY.
   ELEMENT FINAL_PART-1.569 IS DISTORTING EXCESSIVELY.
   ELEMENT FINAL_PART-1.571 IS DISTORTING EXCESSIVELY.
   ELEMENT FINAL_PART-1.572 IS DISTORTING EXCESSIVELY.
   ELEMENT FINAL_PART-1.575 IS DISTORTING EXCESSIVELY.
   ELEMENT FINAL_PART-1.578 IS DISTORTING EXCESSIVELY.
   ELEMENT FINAL_PART-1.580 IS DISTORTING EXCESSIVELY.
   ELEMENT FINAL_PART-1.581 IS DISTORTING EXCESSIVELY.
   ELEMENT FINAL_PART-1.585 IS DISTORTING EXCESSIVELY.
   ELEMENT FINAL_PART-1.586 IS DISTORTING EXCESSIVELY.
   ELEMENT FINAL_PART-1.587 IS DISTORTING EXCESSIVELY.
   ELEMENT FINAL_PART-1.588 IS DISTORTING EXCESSIVELY.
   ELEMENT FINAL_PART-1.589 IS DISTORTING EXCESSIVELY.
   ELEMENT FINAL_PART-1.591 IS DISTORTING EXCESSIVELY.
   ELEMENT FINAL_PART-1.592 IS DISTORTING EXCESSIVELY.
   ELEMENT FINAL_PART-1.594 IS DISTORTING EXCESSIVELY.
   ELEMENT FINAL_PART-1.597 IS DISTORTING EXCESSIVELY.
   ELEMENT FINAL_PART-1.598 IS DISTORTING EXCESSIVELY.
   ELEMENT FINAL_PART-1.600 IS DISTORTING EXCESSIVELY.
   ELEMENT FINAL_PART-1.601 IS DISTORTING EXCESSIVELY.
   ELEMENT FINAL_PART-1.602 IS DISTORTING EXCESSIVELY.
   ELEMENT FINAL_PART-1.605 IS DISTORTING EXCESSIVELY.
   ELEMENT FINAL_PART-1.606 IS DISTORTING EXCESSIVELY.
   ELEMENT FINAL_PART-1.608 IS DISTORTING EXCESSIVELY.
   ELEMENT FINAL_PART-1.609 IS DISTORTING EXCESSIVELY.
   ELEMENT FINAL_PART-1.610 IS DISTORTING EXCESSIVELY.
   ELEMENT FINAL_PART-1.613 IS DISTORTING EXCESSIVELY.
   ELEMENT FINAL_PART-1.616 IS DISTORTING EXCESSIVELY.
   ELEMENT FINAL_PART-1.617 IS DISTORTING EXCESSIVELY.
   ELEMENT FINAL_PART-1.618 IS DISTORTING EXCESSIVELY.
   ELEMENT FINAL_PART-1.622 IS DISTORTING EXCESSIVELY.
   ELEMENT FINAL_PART-1.623 IS DISTORTING EXCESSIVELY.
   ELEMENT FINAL_PART-1.624 IS DISTORTING EXCESSIVELY.
   ELEMENT FINAL_PART-1.625 IS DISTORTING EXCESSIVELY.
   ELEMENT FINAL_PART-1.628 IS DISTORTING EXCESSIVELY.
   ELEMENT FINAL_PART-1.629 IS DISTORTING EXCESSIVELY.
   ELEMENT FINAL_PART-1.631 IS DISTORTING EXCESSIVELY.
   ELEMENT FINAL_PART-1.632 IS DISTORTING EXCESSIVELY.
   ELEMENT FINAL_PART-1.633 IS DISTORTING EXCESSIVELY.
   ELEMENT FINAL_PART-1.634 IS DISTORTING EXCESSIVELY.
   ELEMENT FINAL_PART-1.635 IS DISTORTING EXCESSIVELY.
   ELEMENT FINAL_PART-1.636 IS DISTORTING EXCESSIVELY.
   ELEMENT FINAL_PART-1.639 IS DISTORTING EXCESSIVELY.
   ELEMENT FINAL_PART-1.640 IS DISTORTING EXCESSIVELY.
   ELEMENT FINAL_PART-1.641 IS DISTORTING EXCESSIVELY.
   ELEMENT FINAL_PART-1.642 IS DISTORTING EXCESSIVELY.
   ELEMENT FINAL_PART-1.646 IS DISTORTING EXCESSIVELY.
   ELEMENT FINAL_PART-1.648 IS DISTORTING EXCESSIVELY.
   ELEMENT FINAL_PART-1.652 IS DISTORTING EXCESSIVELY.
   ELEMENT FINAL_PART-1.653 IS DISTORTING EXCESSIVELY.
   ELEMENT FINAL_PART-1.655 IS DISTORTING EXCESSIVELY.
   ELEMENT FINAL_PART-1.656 IS DISTORTING EXCESSIVELY.
   ELEMENT FINAL_PART-1.657 IS DISTORTING EXCESSIVELY.
   ELEMENT FINAL_PART-1.659 IS DISTORTING EXCESSIVELY.
   ELEMENT FINAL_PART-1.660 IS DISTORTING EXCESSIVELY.
   ELEMENT FINAL_PART-1.661 IS DISTORTING EXCESSIVELY.
   ELEMENT FINAL_PART-1.663 IS DISTORTING EXCESSIVELY.
   ELEMENT FINAL_PART-1.664 IS DISTORTING EXCESSIVELY.
   ELEMENT FINAL_PART-1.667 IS DISTORTING EXCESSIVELY.
   ELEMENT FINAL_PART-1.668 IS DISTORTING EXCESSIVELY.
   ELEMENT FINAL_PART-1.669 IS DISTORTING EXCESSIVELY.
   ELEMENT FINAL_PART-1.670 IS DISTORTING EXCESSIVELY.
   ELEMENT FINAL_PART-1.671 IS DISTORTING EXCESSIVELY.
   ELEMENT FINAL_PART-1.673 IS DISTORTING EXCESSIVELY.
   ELEMENT FINAL_PART-1.675 IS DISTORTING EXCESSIVELY.
   ELEMENT FINAL_PART-1.676 IS DISTORTING EXCESSIVELY.
   ELEMENT FINAL_PART-1.677 IS DISTORTING EXCESSIVELY.
   ELEMENT FINAL_PART-1.680 IS DISTORTING EXCESSIVELY.
   ELEMENT FINAL_PART-1.681 IS DISTORTING EXCESSIVELY.
   ELEMENT FINAL_PART-1.683 IS DISTORTING EXCESSIVELY.
   ELEMENT FINAL_PART-1.684 IS DISTORTING EXCESSIVELY.
   ELEMENT FINAL_PART-1.685 IS DISTORTING EXCESSIVELY.
   ELEMENT FINAL_PART-1.686 IS DISTORTING EXCESSIVELY.
   ELEMENT FINAL_PART-1.687 IS DISTORTING EXCESSIVELY.
   ELEMENT FINAL_PART-1.695 IS DISTORTING EXCESSIVELY.
   ELEMENT FINAL_PART-1.699 IS DISTORTING EXCESSIVELY.
   ELEMENT FINAL_PART-1.702 IS DISTORTING EXCESSIVELY.
   ELEMENT FINAL_PART-1.704 IS DISTORTING EXCESSIVELY.
   ELEMENT FINAL_PART-1.705 IS DISTORTING EXCESSIVELY.
   ELEMENT FINAL_PART-1.708 IS DISTORTING EXCESSIVELY.
   ELEMENT FINAL_PART-1.709 IS DISTORTING EXCESSIVELY.
   ELEMENT FINAL_PART-1.711 IS DISTORTING EXCESSIVELY.
   ELEMENT FINAL_PART-1.712 IS DISTORTING EXCESSIVELY.
   ELEMENT FINAL_PART-1.714 IS DISTORTING EXCESSIVELY.
   ELEMENT FINAL_PART-1.715 IS DISTORTING EXCESSIVELY.
   ELEMENT FINAL_PART-1.716 IS DISTORTING EXCESSIVELY.
   ELEMENT FINAL_PART-1.718 IS DISTORTING EXCESSIVELY.
   ELEMENT FINAL_PART-1.719 IS DISTORTING EXCESSIVELY.
   ELEMENT FINAL_PART-1.724 IS DISTORTING EXCESSIVELY.
   ELEMENT FINAL_PART-1.725 IS DISTORTING EXCESSIVELY.
   ELEMENT FINAL_PART-1.726 IS DISTORTING EXCESSIVELY.
   ELEMENT FINAL_PART-1.728 IS DISTORTING EXCESSIVELY.
   ELEMENT FINAL_PART-1.730 IS DISTORTING EXCESSIVELY.
   ELEMENT FINAL_PART-1.731 IS DISTORTING EXCESSIVELY.
   ELEMENT FINAL_PART-1.732 IS DISTORTING EXCESSIVELY.
   ELEMENT FINAL_PART-1.735 IS DISTORTING EXCESSIVELY.
   ELEMENT FINAL_PART-1.736 IS DISTORTING EXCESSIVELY.
   ELEMENT FINAL_PART-1.738 IS DISTORTING EXCESSIVELY.
   ELEMENT FINAL_PART-1.739 IS DISTORTING EXCESSIVELY.
   ELEMENT FINAL_PART-1.740 IS DISTORTING EXCESSIVELY.
   ELEMENT FINAL_PART-1.741 IS DISTORTING EXCESSIVELY.
   ELEMENT FINAL_PART-1.742 IS DISTORTING EXCESSIVELY.
   ELEMENT FINAL_PART-1.744 IS DISTORTING EXCESSIVELY.
   ELEMENT FINAL_PART-1.745 IS DISTORTING EXCESSIVELY.
   ELEMENT FINAL_PART-1.747 IS DISTORTING EXCESSIVELY.
   ELEMENT FINAL_PART-1.752 IS DISTORTING EXCESSIVELY.
   ELEMENT FINAL_PART-1.753 IS DISTORTING EXCESSIVELY.
   ELEMENT FINAL_PART-1.756 IS DISTORTING EXCESSIVELY.
   ELEMENT FINAL_PART-1.758 IS DISTORTING EXCESSIVELY.
   ELEMENT FINAL_PART-1.759 IS DISTORTING EXCESSIVELY.
   ELEMENT FINAL_PART-1.762 IS DISTORTING EXCESSIVELY.
   ELEMENT FINAL_PART-1.763 IS DISTORTING EXCESSIVELY.
   ELEMENT FINAL_PART-1.764 IS DISTORTING EXCESSIVELY.
   ELEMENT FINAL_PART-1.766 IS DISTORTING EXCESSIVELY.
   ELEMENT FINAL_PART-1.767 IS DISTORTING EXCESSIVELY.
   ELEMENT FINAL_PART-1.770 IS DISTORTING EXCESSIVELY.
   ELEMENT FINAL_PART-1.772 IS DISTORTING EXCESSIVELY.
   ELEMENT FINAL_PART-1.773 IS DISTORTING EXCESSIVELY.
   ELEMENT FINAL_PART-1.777 IS DISTORTING EXCESSIVELY.
   ELEMENT FINAL_PART-1.779 IS DISTORTING EXCESSIVELY.
   ELEMENT FINAL_PART-1.780 IS DISTORTING EXCESSIVELY.
   ELEMENT FINAL_PART-1.785 IS DISTORTING EXCESSIVELY.
   ELEMENT FINAL_PART-1.787 IS DISTORTING EXCESSIVELY.
   ELEMENT FINAL_PART-1.789 IS DISTORTING EXCESSIVELY.
   ELEMENT FINAL_PART-1.792 IS DISTORTING EXCESSIVELY.
   ELEMENT FINAL_PART-1.793 IS DISTORTING EXCESSIVELY.
   ELEMENT FINAL_PART-1.795 IS DISTORTING EXCESSIVELY.
   ELEMENT FINAL_PART-1.797 IS DISTORTING EXCESSIVELY.
   ELEMENT FINAL_PART-1.798 IS DISTORTING EXCESSIVELY.
   ELEMENT FINAL_PART-1.800 IS DISTORTING EXCESSIVELY.
   ELEMENT FINAL_PART-1.802 IS DISTORTING EXCESSIVELY.
   ELEMENT FINAL_PART-1.811 IS DISTORTING EXCESSIVELY.
   ELEMENT FINAL_PART-1.812 IS DISTORTING EXCESSIVELY.
   ELEMENT FINAL_PART-1.814 IS DISTORTING EXCESSIVELY.
   ELEMENT FINAL_PART-1.815 IS DISTORTING EXCESSIVELY.
   ELEMENT FINAL_PART-1.818 IS DISTORTING EXCESSIVELY.
   ELEMENT FINAL_PART-1.823 IS DISTORTING EXCESSIVELY.
   ELEMENT FINAL_PART-1.825 IS DISTORTING EXCESSIVELY.
   ELEMENT FINAL_PART-1.828 IS DISTORTING EXCESSIVELY.
   ELEMENT FINAL_PART-1.834 IS DISTORTING EXCESSIVELY.
   ELEMENT FINAL_PART-1.835 IS DISTORTING EXCESSIVELY.
   ELEMENT FINAL_PART-1.837 IS DISTORTING EXCESSIVELY.
   ELEMENT FINAL_PART-1.838 IS DISTORTING EXCESSIVELY.
   ELEMENT FINAL_PART-1.839 IS DISTORTING EXCESSIVELY.
   ELEMENT FINAL_PART-1.840 IS DISTORTING EXCESSIVELY.
   ELEMENT FINAL_PART-1.842 IS DISTORTING EXCESSIVELY.
   ELEMENT FINAL_PART-1.844 IS DISTORTING EXCESSIVELY.
   ELEMENT FINAL_PART-1.847 IS DISTORTING EXCESSIVELY.
   ELEMENT FINAL_PART-1.848 IS DISTORTING EXCESSIVELY.
   ELEMENT FINAL_PART-1.849 IS DISTORTING EXCESSIVELY.
   ELEMENT FINAL_PART-1.851 IS DISTORTING EXCESSIVELY.
   ELEMENT FINAL_PART-1.853 IS DISTORTING EXCESSIVELY.
   ELEMENT FINAL_PART-1.856 IS DISTORTING EXCESSIVELY.
   ELEMENT FINAL_PART-1.857 IS DISTORTING EXCESSIVELY.
   ELEMENT FINAL_PART-1.858 IS DISTORTING EXCESSIVELY.
   ELEMENT FINAL_PART-1.859 IS DISTORTING EXCESSIVELY.
   ELEMENT FINAL_PART-1.860 IS DISTORTING EXCESSIVELY.
   ELEMENT FINAL_PART-1.861 IS DISTORTING EXCESSIVELY.
   ELEMENT FINAL_PART-1.868 IS DISTORTING EXCESSIVELY.
   ELEMENT FINAL_PART-1.871 IS DISTORTING EXCESSIVELY.
   ELEMENT FINAL_PART-1.872 IS DISTORTING EXCESSIVELY.
   ELEMENT FINAL_PART-1.873 IS DISTORTING EXCESSIVELY.
   ELEMENT FINAL_PART-1.875 IS DISTORTING EXCESSIVELY.
   ELEMENT FINAL_PART-1.878 IS DISTORTING EXCESSIVELY.
   ELEMENT FINAL_PART-1.879 IS DISTORTING EXCESSIVELY.
   ELEMENT FINAL_PART-1.880 IS DISTORTING EXCESSIVELY.
   ELEMENT FINAL_PART-1.881 IS DISTORTING EXCESSIVELY.
   ELEMENT FINAL_PART-1.883 IS DISTORTING EXCESSIVELY.
   ELEMENT FINAL_PART-1.888 IS DISTORTING EXCESSIVELY.
   ELEMENT FINAL_PART-1.891 IS DISTORTING EXCESSIVELY.
   ELEMENT FINAL_PART-1.892 IS DISTORTING EXCESSIVELY.
   ELEMENT FINAL_PART-1.896 IS DISTORTING EXCESSIVELY.
   ELEMENT FINAL_PART-1.899 IS DISTORTING EXCESSIVELY.
   ELEMENT FINAL_PART-1.902 IS DISTORTING EXCESSIVELY.
   ELEMENT FINAL_PART-1.905 IS DISTORTING EXCESSIVELY.
   ELEMENT FINAL_PART-1.907 IS DISTORTING EXCESSIVELY.
   ELEMENT FINAL_PART-1.908 IS DISTORTING EXCESSIVELY.
   ELEMENT FINAL_PART-1.910 IS DISTORTING EXCESSIVELY.
   ELEMENT FINAL_PART-1.911 IS DISTORTING EXCESSIVELY.
   ELEMENT FINAL_PART-1.913 IS DISTORTING EXCESSIVELY.
   ELEMENT FINAL_PART-1.918 IS DISTORTING EXCESSIVELY.
   ELEMENT FINAL_PART-1.919 IS DISTORTING EXCESSIVELY.
   ELEMENT FINAL_PART-1.920 IS DISTORTING EXCESSIVELY.
   ELEMENT FINAL_PART-1.922 IS DISTORTING EXCESSIVELY.
   ELEMENT FINAL_PART-1.923 IS DISTORTING EXCESSIVELY.
   ELEMENT FINAL_PART-1.925 IS DISTORTING EXCESSIVELY.
   ELEMENT FINAL_PART-1.927 IS DISTORTING EXCESSIVELY.
   ELEMENT FINAL_PART-1.928 IS DISTORTING EXCESSIVELY.
   ELEMENT FINAL_PART-1.930 IS DISTORTING EXCESSIVELY.
   ELEMENT FINAL_PART-1.931 IS DISTORTING EXCESSIVELY.
   ELEMENT FINAL_PART-1.932 IS DISTORTING EXCESSIVELY.
   ELEMENT FINAL_PART-1.934 IS DISTORTING EXCESSIVELY.
   ELEMENT FINAL_PART-1.937 IS DISTORTING EXCESSIVELY.
   ELEMENT FINAL_PART-1.938 IS DISTORTING EXCESSIVELY.
   ELEMENT FINAL_PART-1.940 IS DISTORTING EXCESSIVELY.
   ELEMENT FINAL_PART-1.942 IS DISTORTING EXCESSIVELY.
   ELEMENT FINAL_PART-1.945 IS DISTORTING EXCESSIVELY.
   ELEMENT FINAL_PART-1.946 IS DISTORTING EXCESSIVELY.
   ELEMENT FINAL_PART-1.947 IS DISTORTING EXCESSIVELY.
   ELEMENT FINAL_PART-1.948 IS DISTORTING EXCESSIVELY.
   ELEMENT FINAL_PART-1.949 IS DISTORTING EXCESSIVELY.
   ELEMENT FINAL_PART-1.952 IS DISTORTING EXCESSIVELY.
   ELEMENT FINAL_PART-1.954 IS DISTORTING EXCESSIVELY.
   ELEMENT FINAL_PART-1.956 IS DISTORTING EXCESSIVELY.
   ELEMENT FINAL_PART-1.957 IS DISTORTING EXCESSIVELY.
   ELEMENT FINAL_PART-1.958 IS DISTORTING EXCESSIVELY.
   ELEMENT FINAL_PART-1.960 IS DISTORTING EXCESSIVELY.
   ELEMENT FINAL_PART-1.962 IS DISTORTING EXCESSIVELY.
   ELEMENT FINAL_PART-1.963 IS DISTORTING EXCESSIVELY.
   ELEMENT FINAL_PART-1.964 IS DISTORTING EXCESSIVELY.
   ELEMENT FINAL_PART-1.967 IS DISTORTING EXCESSIVELY.
   ELEMENT FINAL_PART-1.968 IS DISTORTING EXCESSIVELY.
   ELEMENT FINAL_PART-1.971 IS DISTORTING EXCESSIVELY.
   ELEMENT FINAL_PART-1.973 IS DISTORTING EXCESSIVELY.
   ELEMENT FINAL_PART-1.975 IS DISTORTING EXCESSIVELY.
   ELEMENT FINAL_PART-1.976 IS DISTORTING EXCESSIVELY.
   ELEMENT FINAL_PART-1.977 IS DISTORTING EXCESSIVELY.
   ELEMENT FINAL_PART-1.979 IS DISTORTING EXCESSIVELY.
   ELEMENT FINAL_PART-1.982 IS DISTORTING EXCESSIVELY.
   ELEMENT FINAL_PART-1.984 IS DISTORTING EXCESSIVELY.
   ELEMENT FINAL_PART-1.985 IS DISTORTING EXCESSIVELY.
   ELEMENT FINAL_PART-1.987 IS DISTORTING EXCESSIVELY.
   ELEMENT FINAL_PART-1.990 IS DISTORTING EXCESSIVELY.
   ELEMENT FINAL_PART-1.992 IS DISTORTING EXCESSIVELY.
   ELEMENT FINAL_PART-1.995 IS DISTORTING EXCESSIVELY.
   ELEMENT FINAL_PART-1.998 IS DISTORTING EXCESSIVELY.
   ELEMENT FINAL_PART-1.999 IS DISTORTING EXCESSIVELY.
   ELEMENT FINAL_PART-1.1003 IS DISTORTING EXCESSIVELY.
   ELEMENT FINAL_PART-1.1005 IS DISTORTING EXCESSIVELY.
   ELEMENT FINAL_PART-1.1008 IS DISTORTING EXCESSIVELY.
   ELEMENT FINAL_PART-1.1009 IS DISTORTING EXCESSIVELY.
   ELEMENT FINAL_PART-1.1010 IS DISTORTING EXCESSIVELY.
   ELEMENT FINAL_PART-1.1013 IS DISTORTING EXCESSIVELY.
   ELEMENT FINAL_PART-1.1014 IS DISTORTING EXCESSIVELY.
   ELEMENT FINAL_PART-1.1017 IS DISTORTING EXCESSIVELY.
   ELEMENT FINAL_PART-1.1019 IS DISTORTING EXCESSIVELY.
   ELEMENT FINAL_PART-1.1020 IS DISTORTING EXCESSIVELY.
   ELEMENT FINAL_PART-1.1021 IS DISTORTING EXCESSIVELY.
   ELEMENT FINAL_PART-1.1026 IS DISTORTING EXCESSIVELY.
   ELEMENT FINAL_PART-1.1027 IS DISTORTING EXCESSIVELY.
   ELEMENT FINAL_PART-1.1029 IS DISTORTING EXCESSIVELY.
   ELEMENT FINAL_PART-1.1031 IS DISTORTING EXCESSIVELY.
   ELEMENT FINAL_PART-1.1032 IS DISTORTING EXCESSIVELY.
   ELEMENT FINAL_PART-1.1034 IS DISTORTING EXCESSIVELY.
   ELEMENT FINAL_PART-1.1035 IS DISTORTING EXCESSIVELY.
   ELEMENT FINAL_PART-1.1037 IS DISTORTING EXCESSIVELY.
   ELEMENT FINAL_PART-1.1038 IS DISTORTING EXCESSIVELY.
   ELEMENT FINAL_PART-1.1039 IS DISTORTING EXCESSIVELY.
   ELEMENT FINAL_PART-1.1040 IS DISTORTING EXCESSIVELY.
   ELEMENT FINAL_PART-1.1042 IS DISTORTING EXCESSIVELY.
   ELEMENT FINAL_PART-1.1043 IS DISTORTING EXCESSIVELY.
   ELEMENT FINAL_PART-1.1044 IS DISTORTING EXCESSIVELY.
   ELEMENT FINAL_PART-1.1045 IS DISTORTING EXCESSIVELY.
   ELEMENT FINAL_PART-1.1046 IS DISTORTING EXCESSIVELY.
   ELEMENT FINAL_PART-1.1047 IS DISTORTING EXCESSIVELY.
   ELEMENT FINAL_PART-1.1049 IS DISTORTING EXCESSIVELY.
   ELEMENT FINAL_PART-1.1050 IS DISTORTING EXCESSIVELY.
   ELEMENT FINAL_PART-1.1053 IS DISTORTING EXCESSIVELY.
   ELEMENT FINAL_PART-1.1055 IS DISTORTING EXCESSIVELY.
   ELEMENT FINAL_PART-1.1056 IS DISTORTING EXCESSIVELY.
   ELEMENT FINAL_PART-1.1057 IS DISTORTING EXCESSIVELY.
   ELEMENT FINAL_PART-1.1058 IS DISTORTING EXCESSIVELY.
   ELEMENT FINAL_PART-1.1059 IS DISTORTING EXCESSIVELY.
   ELEMENT FINAL_PART-1.1060 IS DISTORTING EXCESSIVELY.
   ELEMENT FINAL_PART-1.1062 IS DISTORTING EXCESSIVELY.
   ELEMENT FINAL_PART-1.1063 IS DISTORTING EXCESSIVELY.
   ELEMENT FINAL_PART-1.1064 IS DISTORTING EXCESSIVELY.
   ELEMENT FINAL_PART-1.1066 IS DISTORTING EXCESSIVELY.
   ELEMENT FINAL_PART-1.1067 IS DISTORTING EXCESSIVELY.
   ELEMENT FINAL_PART-1.1068 IS DISTORTING EXCESSIVELY.
   ELEMENT FINAL_PART-1.1070 IS DISTORTING EXCESSIVELY.
   ELEMENT FINAL_PART-1.1073 IS DISTORTING EXCESSIVELY.
   ELEMENT FINAL_PART-1.1074 IS DISTORTING EXCESSIVELY.
   ELEMENT FINAL_PART-1.1076 IS DISTORTING EXCESSIVELY.
   ELEMENT FINAL_PART-1.1077 IS DISTORTING EXCESSIVELY.
   ELEMENT FINAL_PART-1.1083 IS DISTORTING EXCESSIVELY.
   ELEMENT FINAL_PART-1.1084 IS DISTORTING EXCESSIVELY.
   ELEMENT FINAL_PART-1.1086 IS DISTORTING EXCESSIVELY.
   ELEMENT FINAL_PART-1.1087 IS DISTORTING EXCESSIVELY.
   ELEMENT FINAL_PART-1.1088 IS DISTORTING EXCESSIVELY.
   ELEMENT FINAL_PART-1.1090 IS DISTORTING EXCESSIVELY.
   ELEMENT FINAL_PART-1.1093 IS DISTORTING EXCESSIVELY.
   ELEMENT FINAL_PART-1.1094 IS DISTORTING EXCESSIVELY.
   ELEMENT FINAL_PART-1.1097 IS DISTORTING EXCESSIVELY.
   ELEMENT FINAL_PART-1.1099 IS DISTORTING EXCESSIVELY.
   ELEMENT FINAL_PART-1.1101 IS DISTORTING EXCESSIVELY.
   ELEMENT FINAL_PART-1.1103 IS DISTORTING EXCESSIVELY.
   ELEMENT FINAL_PART-1.1104 IS DISTORTING EXCESSIVELY.
   ELEMENT FINAL_PART-1.1106 IS DISTORTING EXCESSIVELY.
   ELEMENT FINAL_PART-1.1108 IS DISTORTING EXCESSIVELY.
   ELEMENT FINAL_PART-1.1110 IS DISTORTING EXCESSIVELY.
   ELEMENT FINAL_PART-1.1111 IS DISTORTING EXCESSIVELY.
   ELEMENT FINAL_PART-1.1113 IS DISTORTING EXCESSIVELY.
   ELEMENT FINAL_PART-1.1115 IS DISTORTING EXCESSIVELY.
   ELEMENT FINAL_PART-1.1116 IS DISTORTING EXCESSIVELY.
   ELEMENT FINAL_PART-1.1120 IS DISTORTING EXCESSIVELY.
   ELEMENT FINAL_PART-1.1122 IS DISTORTING EXCESSIVELY.
   ELEMENT FINAL_PART-1.1123 IS DISTORTING EXCESSIVELY.
   ELEMENT FINAL_PART-1.1126 IS DISTORTING EXCESSIVELY.
   ELEMENT FINAL_PART-1.1127 IS DISTORTING EXCESSIVELY.
   ELEMENT FINAL_PART-1.1128 IS DISTORTING EXCESSIVELY.
   ELEMENT FINAL_PART-1.1129 IS DISTORTING EXCESSIVELY.
   ELEMENT FINAL_PART-1.1133 IS DISTORTING EXCESSIVELY.
   ELEMENT FINAL_PART-1.1138 IS DISTORTING EXCESSIVELY.
   ELEMENT FINAL_PART-1.1140 IS DISTORTING EXCESSIVELY.
   ELEMENT FINAL_PART-1.1142 IS DISTORTING EXCESSIVELY.
   ELEMENT FINAL_PART-1.1143 IS DISTORTING EXCESSIVELY.
   ELEMENT FINAL_PART-1.1144 IS DISTORTING EXCESSIVELY.
   ELEMENT FINAL_PART-1.1146 IS DISTORTING EXCESSIVELY.
   ELEMENT FINAL_PART-1.1147 IS DISTORTING EXCESSIVELY.
   ELEMENT FINAL_PART-1.1148 IS DISTORTING EXCESSIVELY.
   ELEMENT FINAL_PART-1.1150 IS DISTORTING EXCESSIVELY.
   ELEMENT FINAL_PART-1.1152 IS DISTORTING EXCESSIVELY.
   ELEMENT FINAL_PART-1.1153 IS DISTORTING EXCESSIVELY.
   ELEMENT FINAL_PART-1.1155 IS DISTORTING EXCESSIVELY.
   ELEMENT FINAL_PART-1.1156 IS DISTORTING EXCESSIVELY.
   ELEMENT FINAL_PART-1.1158 IS DISTORTING EXCESSIVELY.
   ELEMENT FINAL_PART-1.1161 IS DISTORTING EXCESSIVELY.
   ELEMENT FINAL_PART-1.1163 IS DISTORTING EXCESSIVELY.
   ELEMENT FINAL_PART-1.1164 IS DISTORTING EXCESSIVELY.
   ELEMENT FINAL_PART-1.1165 IS DISTORTING EXCESSIVELY.
   ELEMENT FINAL_PART-1.1172 IS DISTORTING EXCESSIVELY.
   ELEMENT FINAL_PART-1.1173 IS DISTORTING EXCESSIVELY.
   ELEMENT FINAL_PART-1.1174 IS DISTORTING EXCESSIVELY.
   ELEMENT FINAL_PART-1.1175 IS DISTORTING EXCESSIVELY.
   ELEMENT FINAL_PART-1.1178 IS DISTORTING EXCESSIVELY.
   ELEMENT FINAL_PART-1.1186 IS DISTORTING EXCESSIVELY.
   ELEMENT FINAL_PART-1.1188 IS DISTORTING EXCESSIVELY.
   ELEMENT FINAL_PART-1.1191 IS DISTORTING EXCESSIVELY.
   ELEMENT FINAL_PART-1.1194 IS DISTORTING EXCESSIVELY.
   ELEMENT FINAL_PART-1.1197 IS DISTORTING EXCESSIVELY.
   ELEMENT FINAL_PART-1.1198 IS DISTORTING EXCESSIVELY.
   ELEMENT FINAL_PART-1.1200 IS DISTORTING EXCESSIVELY.
   ELEMENT FINAL_PART-1.1201 IS DISTORTING EXCESSIVELY.
   ELEMENT FINAL_PART-1.1202 IS DISTORTING EXCESSIVELY.
   ELEMENT FINAL_PART-1.1206 IS DISTORTING EXCESSIVELY.
   ELEMENT FINAL_PART-1.1208 IS DISTORTING EXCESSIVELY.
   ELEMENT FINAL_PART-1.1209 IS DISTORTING EXCESSIVELY.
   ELEMENT FINAL_PART-1.1211 IS DISTORTING EXCESSIVELY.
   ELEMENT FINAL_PART-1.1213 IS DISTORTING EXCESSIVELY.
   ELEMENT FINAL_PART-1.1214 IS DISTORTING EXCESSIVELY.
   ELEMENT FINAL_PART-1.1216 IS DISTORTING EXCESSIVELY.
   ELEMENT FINAL_PART-1.1217 IS DISTORTING EXCESSIVELY.
   ELEMENT FINAL_PART-1.1219 IS DISTORTING EXCESSIVELY.
   ELEMENT FINAL_PART-1.1220 IS DISTORTING EXCESSIVELY.
   ELEMENT FINAL_PART-1.1223 IS DISTORTING EXCESSIVELY.
   ELEMENT FINAL_PART-1.1224 IS DISTORTING EXCESSIVELY.
   ELEMENT FINAL_PART-1.1225 IS DISTORTING EXCESSIVELY.
   ELEMENT FINAL_PART-1.1226 IS DISTORTING EXCESSIVELY.
   ELEMENT FINAL_PART-1.1229 IS DISTORTING EXCESSIVELY.
   ELEMENT FINAL_PART-1.1233 IS DISTORTING EXCESSIVELY.
   ELEMENT FINAL_PART-1.1237 IS DISTORTING EXCESSIVELY.
   ELEMENT FINAL_PART-1.1238 IS DISTORTING EXCESSIVELY.
   ELEMENT FINAL_PART-1.1242 IS DISTORTING EXCESSIVELY.
   ELEMENT FINAL_PART-1.1243 IS DISTORTING EXCESSIVELY.
   ELEMENT FINAL_PART-1.1245 IS DISTORTING EXCESSIVELY.
   ELEMENT FINAL_PART-1.1247 IS DISTORTING EXCESSIVELY.
   ELEMENT FINAL_PART-1.1249 IS DISTORTING EXCESSIVELY.
   ELEMENT FINAL_PART-1.1251 IS DISTORTING EXCESSIVELY.
   ELEMENT FINAL_PART-1.1254 IS DISTORTING EXCESSIVELY.
   ELEMENT FINAL_PART-1.1255 IS DISTORTING EXCESSIVELY.
   ELEMENT FINAL_PART-1.1257 IS DISTORTING EXCESSIVELY.
   ELEMENT FINAL_PART-1.1258 IS DISTORTING EXCESSIVELY.
   ELEMENT FINAL_PART-1.1259 IS DISTORTING EXCESSIVELY.
   ELEMENT FINAL_PART-1.1260 IS DISTORTING EXCESSIVELY.
   ELEMENT FINAL_PART-1.1261 IS DISTORTING EXCESSIVELY.
   ELEMENT FINAL_PART-1.1262 IS DISTORTING EXCESSIVELY.
   ELEMENT FINAL_PART-1.1263 IS DISTORTING EXCESSIVELY.
   ELEMENT FINAL_PART-1.1265 IS DISTORTING EXCESSIVELY.
   ELEMENT FINAL_PART-1.1267 IS DISTORTING EXCESSIVELY.
   ELEMENT FINAL_PART-1.1268 IS DISTORTING EXCESSIVELY.
   ELEMENT FINAL_PART-1.1270 IS DISTORTING EXCESSIVELY.
   ELEMENT FINAL_PART-1.1272 IS DISTORTING EXCESSIVELY.
   ELEMENT FINAL_PART-1.1274 IS DISTORTING EXCESSIVELY.
   ELEMENT FINAL_PART-1.1275 IS DISTORTING EXCESSIVELY.
   ELEMENT FINAL_PART-1.1276 IS DISTORTING EXCESSIVELY.
   ELEMENT FINAL_PART-1.1281 IS DISTORTING EXCESSIVELY.
   ELEMENT FINAL_PART-1.1282 IS DISTORTING EXCESSIVELY.
   ELEMENT FINAL_PART-1.1284 IS DISTORTING EXCESSIVELY.
   ELEMENT FINAL_PART-1.1288 IS DISTORTING EXCESSIVELY.
   ELEMENT FINAL_PART-1.1294 IS DISTORTING EXCESSIVELY.
   ELEMENT FINAL_PART-1.1295 IS DISTORTING EXCESSIVELY.
   ELEMENT FINAL_PART-1.1296 IS DISTORTING EXCESSIVELY.
   ELEMENT FINAL_PART-1.1297 IS DISTORTING EXCESSIVELY.
   ELEMENT FINAL_PART-1.1302 IS DISTORTING EXCESSIVELY.
   ELEMENT FINAL_PART-1.1306 IS DISTORTING EXCESSIVELY.
   ELEMENT FINAL_PART-1.1310 IS DISTORTING EXCESSIVELY.
   ELEMENT FINAL_PART-1.1311 IS DISTORTING EXCESSIVELY.
   ELEMENT FINAL_PART-1.1312 IS DISTORTING EXCESSIVELY.
   ELEMENT FINAL_PART-1.1315 IS DISTORTING EXCESSIVELY.
   ELEMENT FINAL_PART-1.1317 IS DISTORTING EXCESSIVELY.
   ELEMENT FINAL_PART-1.1319 IS DISTORTING EXCESSIVELY.
   ELEMENT FINAL_PART-1.1323 IS DISTORTING EXCESSIVELY.
   ELEMENT FINAL_PART-1.1324 IS DISTORTING EXCESSIVELY.
   ELEMENT FINAL_PART-1.1326 IS DISTORTING EXCESSIVELY.
   ELEMENT FINAL_PART-1.1328 IS DISTORTING EXCESSIVELY.
   ELEMENT FINAL_PART-1.1329 IS DISTORTING EXCESSIVELY.
   ELEMENT FINAL_PART-1.1330 IS DISTORTING EXCESSIVELY.
   ELEMENT FINAL_PART-1.1331 IS DISTORTING EXCESSIVELY.
   ELEMENT FINAL_PART-1.1335 IS DISTORTING EXCESSIVELY.
   ELEMENT FINAL_PART-1.1339 IS DISTORTING EXCESSIVELY.
   ELEMENT FINAL_PART-1.1340 IS DISTORTING EXCESSIVELY.
   ELEMENT FINAL_PART-1.1342 IS DISTORTING EXCESSIVELY.
   ELEMENT FINAL_PART-1.1344 IS DISTORTING EXCESSIVELY.
   ELEMENT FINAL_PART-1.1345 IS DISTORTING EXCESSIVELY.
   ELEMENT FINAL_PART-1.1346 IS DISTORTING EXCESSIVELY.
   ELEMENT FINAL_PART-1.1347 IS DISTORTING EXCESSIVELY.
   ELEMENT FINAL_PART-1.1348 IS DISTORTING EXCESSIVELY.
   ELEMENT FINAL_PART-1.1350 IS DISTORTING EXCESSIVELY.
   ELEMENT FINAL_PART-1.1351 IS DISTORTING EXCESSIVELY.
   ELEMENT FINAL_PART-1.1353 IS DISTORTING EXCESSIVELY.
   ELEMENT FINAL_PART-1.1354 IS DISTORTING EXCESSIVELY.
   ELEMENT FINAL_PART-1.1356 IS DISTORTING EXCESSIVELY.
   ELEMENT FINAL_PART-1.1358 IS DISTORTING EXCESSIVELY.
   ELEMENT FINAL_PART-1.1361 IS DISTORTING EXCESSIVELY.
   ELEMENT FINAL_PART-1.1362 IS DISTORTING EXCESSIVELY.
   ELEMENT FINAL_PART-1.1363 IS DISTORTING EXCESSIVELY.
   ELEMENT FINAL_PART-1.1364 IS DISTORTING EXCESSIVELY.
   ELEMENT FINAL_PART-1.1365 IS DISTORTING EXCESSIVELY.
   ELEMENT FINAL_PART-1.1367 IS DISTORTING EXCESSIVELY.
   ELEMENT FINAL_PART-1.1370 IS DISTORTING EXCESSIVELY.
   ELEMENT FINAL_PART-1.1371 IS DISTORTING EXCESSIVELY.
   ELEMENT FINAL_PART-1.1372 IS DISTORTING EXCESSIVELY.
   ELEMENT FINAL_PART-1.1373 IS DISTORTING EXCESSIVELY.
   ELEMENT FINAL_PART-1.1375 IS DISTORTING EXCESSIVELY.
   ELEMENT FINAL_PART-1.1376 IS DISTORTING EXCESSIVELY.
   ELEMENT FINAL_PART-1.1377 IS DISTORTING EXCESSIVELY.
   ELEMENT FINAL_PART-1.1378 IS DISTORTING EXCESSIVELY.
   ELEMENT FINAL_PART-1.1379 IS DISTORTING EXCESSIVELY.
   ELEMENT FINAL_PART-1.1381 IS DISTORTING EXCESSIVELY.
   ELEMENT FINAL_PART-1.1382 IS DISTORTING EXCESSIVELY.
   ELEMENT FINAL_PART-1.1383 IS DISTORTING EXCESSIVELY.
   ELEMENT FINAL_PART-1.1384 IS DISTORTING EXCESSIVELY.
   ELEMENT FINAL_PART-1.1387 IS DISTORTING EXCESSIVELY.
   ELEMENT FINAL_PART-1.1391 IS DISTORTING EXCESSIVELY.
   ELEMENT FINAL_PART-1.1393 IS DISTORTING EXCESSIVELY.
   ELEMENT FINAL_PART-1.1396 IS DISTORTING EXCESSIVELY.
   ELEMENT FINAL_PART-1.1397 IS DISTORTING EXCESSIVELY.
   ELEMENT FINAL_PART-1.1399 IS DISTORTING EXCESSIVELY.
   ELEMENT FINAL_PART-1.1401 IS DISTORTING EXCESSIVELY.
   ELEMENT FINAL_PART-1.1402 IS DISTORTING EXCESSIVELY.
   ELEMENT FINAL_PART-1.1405 IS DISTORTING EXCESSIVELY.
   ELEMENT FINAL_PART-1.1406 IS DISTORTING EXCESSIVELY.
   ELEMENT FINAL_PART-1.1415 IS DISTORTING EXCESSIVELY.
   ELEMENT FINAL_PART-1.1416 IS DISTORTING EXCESSIVELY.
   ELEMENT FINAL_PART-1.1417 IS DISTORTING EXCESSIVELY.
   ELEMENT FINAL_PART-1.1418 IS DISTORTING EXCESSIVELY.
   ELEMENT FINAL_PART-1.1419 IS DISTORTING EXCESSIVELY.
   ELEMENT FINAL_PART-1.1420 IS DISTORTING EXCESSIVELY.
   ELEMENT FINAL_PART-1.1421 IS DISTORTING EXCESSIVELY.
   ELEMENT FINAL_PART-1.1426 IS DISTORTING EXCESSIVELY.
   ELEMENT FINAL_PART-1.1427 IS DISTORTING EXCESSIVELY.
   ELEMENT FINAL_PART-1.1428 IS DISTORTING EXCESSIVELY.
   ELEMENT FINAL_PART-1.1431 IS DISTORTING EXCESSIVELY.
   ELEMENT FINAL_PART-1.1433 IS DISTORTING EXCESSIVELY.
   ELEMENT FINAL_PART-1.1434 IS DISTORTING EXCESSIVELY.
   ELEMENT FINAL_PART-1.1438 IS DISTORTING EXCESSIVELY.
   ELEMENT FINAL_PART-1.1440 IS DISTORTING EXCESSIVELY.
   ELEMENT FINAL_PART-1.1441 IS DISTORTING EXCESSIVELY.
   ELEMENT FINAL_PART-1.1443 IS DISTORTING EXCESSIVELY.
   ELEMENT FINAL_PART-1.1444 IS DISTORTING EXCESSIVELY.
   ELEMENT FINAL_PART-1.1445 IS DISTORTING EXCESSIVELY.
   ELEMENT FINAL_PART-1.1446 IS DISTORTING EXCESSIVELY.
   ELEMENT FINAL_PART-1.1447 IS DISTORTING EXCESSIVELY.
   ELEMENT FINAL_PART-1.1449 IS DISTORTING EXCESSIVELY.
   ELEMENT FINAL_PART-1.1451 IS DISTORTING EXCESSIVELY.
   ELEMENT FINAL_PART-1.1452 IS DISTORTING EXCESSIVELY.
   ELEMENT FINAL_PART-1.1453 IS DISTORTING EXCESSIVELY.
   ELEMENT FINAL_PART-1.1455 IS DISTORTING EXCESSIVELY.
   ELEMENT FINAL_PART-1.1456 IS DISTORTING EXCESSIVELY.
   ELEMENT FINAL_PART-1.1459 IS DISTORTING EXCESSIVELY.
   ELEMENT FINAL_PART-1.1460 IS DISTORTING EXCESSIVELY.
   ELEMENT FINAL_PART-1.1461 IS DISTORTING EXCESSIVELY.
   ELEMENT FINAL_PART-1.1463 IS DISTORTING EXCESSIVELY.
   ELEMENT FINAL_PART-1.1464 IS DISTORTING EXCESSIVELY.
   ELEMENT FINAL_PART-1.1465 IS DISTORTING EXCESSIVELY.
   ELEMENT FINAL_PART-1.1467 IS DISTORTING EXCESSIVELY.
   ELEMENT FINAL_PART-1.1470 IS DISTORTING EXCESSIVELY.
   ELEMENT FINAL_PART-1.1475 IS DISTORTING EXCESSIVELY.
   ELEMENT FINAL_PART-1.1477 IS DISTORTING EXCESSIVELY.
   ELEMENT FINAL_PART-1.1478 IS DISTORTING EXCESSIVELY.
   ELEMENT FINAL_PART-1.1479 IS DISTORTING EXCESSIVELY.
   ELEMENT FINAL_PART-1.1480 IS DISTORTING EXCESSIVELY.
   ELEMENT FINAL_PART-1.1482 IS DISTORTING EXCESSIVELY.
   ELEMENT FINAL_PART-1.1484 IS DISTORTING EXCESSIVELY.
   ELEMENT FINAL_PART-1.1487 IS DISTORTING EXCESSIVELY.
   ELEMENT FINAL_PART-1.1489 IS DISTORTING EXCESSIVELY.
   ELEMENT FINAL_PART-1.1490 IS DISTORTING EXCESSIVELY.
   ELEMENT FINAL_PART-1.1491 IS DISTORTING EXCESSIVELY.
   ELEMENT FINAL_PART-1.1492 IS DISTORTING EXCESSIVELY.
   ELEMENT FINAL_PART-1.1495 IS DISTORTING EXCESSIVELY.
   ELEMENT FINAL_PART-1.1497 IS DISTORTING EXCESSIVELY.
   ELEMENT FINAL_PART-1.1498 IS DISTORTING EXCESSIVELY.
   ELEMENT FINAL_PART-1.1500 IS DISTORTING EXCESSIVELY.
   ELEMENT FINAL_PART-1.1504 IS DISTORTING EXCESSIVELY.
   ELEMENT FINAL_PART-1.1505 IS DISTORTING EXCESSIVELY.
   ELEMENT FINAL_PART-1.1506 IS DISTORTING EXCESSIVELY.
   ELEMENT FINAL_PART-1.1507 IS DISTORTING EXCESSIVELY.
   ELEMENT FINAL_PART-1.1508 IS DISTORTING EXCESSIVELY.
   ELEMENT FINAL_PART-1.1509 IS DISTORTING EXCESSIVELY.
   ELEMENT FINAL_PART-1.1510 IS DISTORTING EXCESSIVELY.
   ELEMENT FINAL_PART-1.1511 IS DISTORTING EXCESSIVELY.
   ELEMENT FINAL_PART-1.1512 IS DISTORTING EXCESSIVELY.
   ELEMENT FINAL_PART-1.1513 IS DISTORTING EXCESSIVELY.
   ELEMENT FINAL_PART-1.1516 IS DISTORTING EXCESSIVELY.
   ELEMENT FINAL_PART-1.1522 IS DISTORTING EXCESSIVELY.
   ELEMENT FINAL_PART-1.1527 IS DISTORTING EXCESSIVELY.
   ELEMENT FINAL_PART-1.1528 IS DISTORTING EXCESSIVELY.
   ELEMENT FINAL_PART-1.1529 IS DISTORTING EXCESSIVELY.
   ELEMENT FINAL_PART-1.1531 IS DISTORTING EXCESSIVELY.
   ELEMENT FINAL_PART-1.1535 IS DISTORTING EXCESSIVELY.
   ELEMENT FINAL_PART-1.1536 IS DISTORTING EXCESSIVELY.
   ELEMENT FINAL_PART-1.1537 IS DISTORTING EXCESSIVELY.
   ELEMENT FINAL_PART-1.1538 IS DISTORTING EXCESSIVELY.
   ELEMENT FINAL_PART-1.1539 IS DISTORTING EXCESSIVELY.
   ELEMENT FINAL_PART-1.1540 IS DISTORTING EXCESSIVELY.
   ELEMENT FINAL_PART-1.1541 IS DISTORTING EXCESSIVELY.
   ELEMENT FINAL_PART-1.1542 IS DISTORTING EXCESSIVELY.
   ELEMENT FINAL_PART-1.1546 IS DISTORTING EXCESSIVELY.
   ELEMENT FINAL_PART-1.1550 IS DISTORTING EXCESSIVELY.
   ELEMENT FINAL_PART-1.1551 IS DISTORTING EXCESSIVELY.
   ELEMENT FINAL_PART-1.1552 IS DISTORTING EXCESSIVELY.
   ELEMENT FINAL_PART-1.1553 IS DISTORTING EXCESSIVELY.
   ELEMENT FINAL_PART-1.1554 IS DISTORTING EXCESSIVELY.
   ELEMENT FINAL_PART-1.1556 IS DISTORTING EXCESSIVELY.
   ELEMENT FINAL_PART-1.1557 IS DISTORTING EXCESSIVELY.
   ELEMENT FINAL_PART-1.1562 IS DISTORTING EXCESSIVELY.
   ELEMENT FINAL_PART-1.1563 IS DISTORTING EXCESSIVELY.
   ELEMENT FINAL_PART-1.1565 IS DISTORTING EXCESSIVELY.
   ELEMENT FINAL_PART-1.1566 IS DISTORTING EXCESSIVELY.
   ELEMENT FINAL_PART-1.1568 IS DISTORTING EXCESSIVELY.
   ELEMENT FINAL_PART-1.1571 IS DISTORTING EXCESSIVELY.
   ELEMENT FINAL_PART-1.1575 IS DISTORTING EXCESSIVELY.
   ELEMENT FINAL_PART-1.1576 IS DISTORTING EXCESSIVELY.
   ELEMENT FINAL_PART-1.1578 IS DISTORTING EXCESSIVELY.
   ELEMENT FINAL_PART-1.1579 IS DISTORTING EXCESSIVELY.
   ELEMENT FINAL_PART-1.1581 IS DISTORTING EXCESSIVELY.
   ELEMENT FINAL_PART-1.1586 IS DISTORTING EXCESSIVELY.
   ELEMENT FINAL_PART-1.1590 IS DISTORTING EXCESSIVELY.
   ELEMENT FINAL_PART-1.1593 IS DISTORTING EXCESSIVELY.
   ELEMENT FINAL_PART-1.1595 IS DISTORTING EXCESSIVELY.
   ELEMENT FINAL_PART-1.1597 IS DISTORTING EXCESSIVELY.
   ELEMENT FINAL_PART-1.1601 IS DISTORTING EXCESSIVELY.
   ELEMENT FINAL_PART-1.1602 IS DISTORTING EXCESSIVELY.
   ELEMENT FINAL_PART-1.1604 IS DISTORTING EXCESSIVELY.
   ELEMENT FINAL_PART-1.1609 IS DISTORTING EXCESSIVELY.
   ELEMENT FINAL_PART-1.1610 IS DISTORTING EXCESSIVELY.
   ELEMENT FINAL_PART-1.1611 IS DISTORTING EXCESSIVELY.
   ELEMENT FINAL_PART-1.1612 IS DISTORTING EXCESSIVELY.
   ELEMENT FINAL_PART-1.1613 IS DISTORTING EXCESSIVELY.
   ELEMENT FINAL_PART-1.1616 IS DISTORTING EXCESSIVELY.
   ELEMENT FINAL_PART-1.1617 IS DISTORTING EXCESSIVELY.
   ELEMENT FINAL_PART-1.1618 IS DISTORTING EXCESSIVELY.
   ELEMENT FINAL_PART-1.1620 IS DISTORTING EXCESSIVELY.
   ELEMENT FINAL_PART-1.1622 IS DISTORTING EXCESSIVELY.
   ELEMENT FINAL_PART-1.1624 IS DISTORTING EXCESSIVELY.
   ELEMENT FINAL_PART-1.1625 IS DISTORTING EXCESSIVELY.
   ELEMENT FINAL_PART-1.1626 IS DISTORTING EXCESSIVELY.
   ELEMENT FINAL_PART-1.1627 IS DISTORTING EXCESSIVELY.
   ELEMENT FINAL_PART-1.1629 IS DISTORTING EXCESSIVELY.
   ELEMENT FINAL_PART-1.1630 IS DISTORTING EXCESSIVELY.
   ELEMENT FINAL_PART-1.1633 IS DISTORTING EXCESSIVELY.
   ELEMENT FINAL_PART-1.1637 IS DISTORTING EXCESSIVELY.
   ELEMENT FINAL_PART-1.1639 IS DISTORTING EXCESSIVELY.
   ELEMENT FINAL_PART-1.1646 IS DISTORTING EXCESSIVELY.
   ELEMENT FINAL_PART-1.1647 IS DISTORTING EXCESSIVELY.
   ELEMENT FINAL_PART-1.1652 IS DISTORTING EXCESSIVELY.
   ELEMENT FINAL_PART-1.1657 IS DISTORTING EXCESSIVELY.
   ELEMENT FINAL_PART-1.1659 IS DISTORTING EXCESSIVELY.
   ELEMENT FINAL_PART-1.1660 IS DISTORTING EXCESSIVELY.
   ELEMENT FINAL_PART-1.1664 IS DISTORTING EXCESSIVELY.
   ELEMENT FINAL_PART-1.1665 IS DISTORTING EXCESSIVELY.
   ELEMENT FINAL_PART-1.1666 IS DISTORTING EXCESSIVELY.
   ELEMENT FINAL_PART-1.1668 IS DISTORTING EXCESSIVELY.
   ELEMENT FINAL_PART-1.1671 IS DISTORTING EXCESSIVELY.
   ELEMENT FINAL_PART-1.1675 IS DISTORTING EXCESSIVELY.
   ELEMENT FINAL_PART-1.1676 IS DISTORTING EXCESSIVELY.
   ELEMENT FINAL_PART-1.1677 IS DISTORTING EXCESSIVELY.
   ELEMENT FINAL_PART-1.1678 IS DISTORTING EXCESSIVELY.
   ELEMENT FINAL_PART-1.1680 IS DISTORTING EXCESSIVELY.
   ELEMENT FINAL_PART-1.1683 IS DISTORTING EXCESSIVELY.
   ELEMENT FINAL_PART-1.1685 IS DISTORTING EXCESSIVELY.
   ELEMENT FINAL_PART-1.1687 IS DISTORTING EXCESSIVELY.
   ELEMENT FINAL_PART-1.1690 IS DISTORTING EXCESSIVELY.
   ELEMENT FINAL_PART-1.1691 IS DISTORTING EXCESSIVELY.
   ELEMENT FINAL_PART-1.1692 IS DISTORTING EXCESSIVELY.
   ELEMENT FINAL_PART-1.1695 IS DISTORTING EXCESSIVELY.
   ELEMENT FINAL_PART-1.1696 IS DISTORTING EXCESSIVELY.
   ELEMENT FINAL_PART-1.1700 IS DISTORTING EXCESSIVELY.
   ELEMENT FINAL_PART-1.1701 IS DISTORTING EXCESSIVELY.
   ELEMENT FINAL_PART-1.1702 IS DISTORTING EXCESSIVELY.
   ELEMENT FINAL_PART-1.1704 IS DISTORTING EXCESSIVELY.
   ELEMENT FINAL_PART-1.1705 IS DISTORTING EXCESSIVELY.
   ELEMENT FINAL_PART-1.1709 IS DISTORTING EXCESSIVELY.
   ELEMENT FINAL_PART-1.1710 IS DISTORTING EXCESSIVELY.
   ELEMENT FINAL_PART-1.1713 IS DISTORTING EXCESSIVELY.
   ELEMENT FINAL_PART-1.1715 IS DISTORTING EXCESSIVELY.
   ELEMENT FINAL_PART-1.1716 IS DISTORTING EXCESSIVELY.
   ELEMENT FINAL_PART-1.1717 IS DISTORTING EXCESSIVELY.
   ELEMENT FINAL_PART-1.1718 IS DISTORTING EXCESSIVELY.
   ELEMENT FINAL_PART-1.1720 IS DISTORTING EXCESSIVELY.
   ELEMENT FINAL_PART-1.1723 IS DISTORTING EXCESSIVELY.
   ELEMENT FINAL_PART-1.1726 IS DISTORTING EXCESSIVELY.
   ELEMENT FINAL_PART-1.1727 IS DISTORTING EXCESSIVELY.
   ELEMENT FINAL_PART-1.1729 IS DISTORTING EXCESSIVELY.
   ELEMENT FINAL_PART-1.1730 IS DISTORTING EXCESSIVELY.
   ELEMENT FINAL_PART-1.1732 IS DISTORTING EXCESSIVELY.
   ELEMENT FINAL_PART-1.1733 IS DISTORTING EXCESSIVELY.
   ELEMENT FINAL_PART-1.1734 IS DISTORTING EXCESSIVELY.
   ELEMENT FINAL_PART-1.1735 IS DISTORTING EXCESSIVELY.
   ELEMENT FINAL_PART-1.1737 IS DISTORTING EXCESSIVELY.
   ELEMENT FINAL_PART-1.1738 IS DISTORTING EXCESSIVELY.
   ELEMENT FINAL_PART-1.1739 IS DISTORTING EXCESSIVELY.
   ELEMENT FINAL_PART-1.1742 IS DISTORTING EXCESSIVELY.
   ELEMENT FINAL_PART-1.1745 IS DISTORTING EXCESSIVELY.
   ELEMENT FINAL_PART-1.1747 IS DISTORTING EXCESSIVELY.
   ELEMENT FINAL_PART-1.1750 IS DISTORTING EXCESSIVELY.
   ELEMENT FINAL_PART-1.1751 IS DISTORTING EXCESSIVELY.
   ELEMENT FINAL_PART-1.1752 IS DISTORTING EXCESSIVELY.
   ELEMENT FINAL_PART-1.1754 IS DISTORTING EXCESSIVELY.
   ELEMENT FINAL_PART-1.1756 IS DISTORTING EXCESSIVELY.
   ELEMENT FINAL_PART-1.1757 IS DISTORTING EXCESSIVELY.
   ELEMENT FINAL_PART-1.1759 IS DISTORTING EXCESSIVELY.
   ELEMENT FINAL_PART-1.1761 IS DISTORTING EXCESSIVELY.
   ELEMENT FINAL_PART-1.1762 IS DISTORTING EXCESSIVELY.
   ELEMENT FINAL_PART-1.1763 IS DISTORTING EXCESSIVELY.
   ELEMENT FINAL_PART-1.1766 IS DISTORTING EXCESSIVELY.
   ELEMENT FINAL_PART-1.1767 IS DISTORTING EXCESSIVELY.
   ELEMENT FINAL_PART-1.1769 IS DISTORTING EXCESSIVELY.
   ELEMENT FINAL_PART-1.1771 IS DISTORTING EXCESSIVELY.
   ELEMENT FINAL_PART-1.1772 IS DISTORTING EXCESSIVELY.
   ELEMENT FINAL_PART-1.1775 IS DISTORTING EXCESSIVELY.
   ELEMENT FINAL_PART-1.1776 IS DISTORTING EXCESSIVELY.
   ELEMENT FINAL_PART-1.1777 IS DISTORTING EXCESSIVELY.
   ELEMENT FINAL_PART-1.1779 IS DISTORTING EXCESSIVELY.
   ELEMENT FINAL_PART-1.1781 IS DISTORTING EXCESSIVELY.
   ELEMENT FINAL_PART-1.1782 IS DISTORTING EXCESSIVELY.
   ELEMENT FINAL_PART-1.1785 IS DISTORTING EXCESSIVELY.
   ELEMENT FINAL_PART-1.1787 IS DISTORTING EXCESSIVELY.
   ELEMENT FINAL_PART-1.1788 IS DISTORTING EXCESSIVELY.
   ELEMENT FINAL_PART-1.1790 IS DISTORTING EXCESSIVELY.
   ELEMENT FINAL_PART-1.1791 IS DISTORTING EXCESSIVELY.
   ELEMENT FINAL_PART-1.1792 IS DISTORTING EXCESSIVELY.
   ELEMENT FINAL_PART-1.1793 IS DISTORTING EXCESSIVELY.
   ELEMENT FINAL_PART-1.1794 IS DISTORTING EXCESSIVELY.
   ELEMENT FINAL_PART-1.1796 IS DISTORTING EXCESSIVELY.
   ELEMENT FINAL_PART-1.1797 IS DISTORTING EXCESSIVELY.
   ELEMENT FINAL_PART-1.1798 IS DISTORTING EXCESSIVELY.
   ELEMENT FINAL_PART-1.1800 IS DISTORTING EXCESSIVELY.
   ELEMENT FINAL_PART-1.1802 IS DISTORTING EXCESSIVELY.
   ELEMENT FINAL_PART-1.1808 IS DISTORTING EXCESSIVELY.
   ELEMENT FINAL_PART-1.1810 IS DISTORTING EXCESSIVELY.
   ELEMENT FINAL_PART-1.1811 IS DISTORTING EXCESSIVELY.
   ELEMENT FINAL_PART-1.1812 IS DISTORTING EXCESSIVELY.
   ELEMENT FINAL_PART-1.1814 IS DISTORTING EXCESSIVELY.
   ELEMENT FINAL_PART-1.1816 IS DISTORTING EXCESSIVELY.
   ELEMENT FINAL_PART-1.1817 IS DISTORTING EXCESSIVELY.
   ELEMENT FINAL_PART-1.1819 IS DISTORTING EXCESSIVELY.
   ELEMENT FINAL_PART-1.1820 IS DISTORTING EXCESSIVELY.
   ELEMENT FINAL_PART-1.1821 IS DISTORTING EXCESSIVELY.
   ELEMENT FINAL_PART-1.1822 IS DISTORTING EXCESSIVELY.
   ELEMENT FINAL_PART-1.1824 IS DISTORTING EXCESSIVELY.
   ELEMENT FINAL_PART-1.1825 IS DISTORTING EXCESSIVELY.
   ELEMENT FINAL_PART-1.1826 IS DISTORTING EXCESSIVELY.
   ELEMENT FINAL_PART-1.1827 IS DISTORTING EXCESSIVELY.
   ELEMENT FINAL_PART-1.1829 IS DISTORTING EXCESSIVELY.
   ELEMENT FINAL_PART-1.1830 IS DISTORTING EXCESSIVELY.
   ELEMENT FINAL_PART-1.1833 IS DISTORTING EXCESSIVELY.
   ELEMENT FINAL_PART-1.1834 IS DISTORTING EXCESSIVELY.
   ELEMENT FINAL_PART-1.1836 IS DISTORTING EXCESSIVELY.
   ELEMENT FINAL_PART-1.1840 IS DISTORTING EXCESSIVELY.
   ELEMENT FINAL_PART-1.1844 IS DISTORTING EXCESSIVELY.
   ELEMENT FINAL_PART-1.1845 IS DISTORTING EXCESSIVELY.
   ELEMENT FINAL_PART-1.1846 IS DISTORTING EXCESSIVELY.
   ELEMENT FINAL_PART-1.1849 IS DISTORTING EXCESSIVELY.
   ELEMENT FINAL_PART-1.1851 IS DISTORTING EXCESSIVELY.
   ELEMENT FINAL_PART-1.1857 IS DISTORTING EXCESSIVELY.
   ELEMENT FINAL_PART-1.1858 IS DISTORTING EXCESSIVELY.
   ELEMENT FINAL_PART-1.1859 IS DISTORTING EXCESSIVELY.
   ELEMENT FINAL_PART-1.1864 IS DISTORTING EXCESSIVELY.
   ELEMENT FINAL_PART-1.1865 IS DISTORTING EXCESSIVELY.
   ELEMENT FINAL_PART-1.1868 IS DISTORTING EXCESSIVELY.
   ELEMENT FINAL_PART-1.1869 IS DISTORTING EXCESSIVELY.
   ELEMENT FINAL_PART-1.1872 IS DISTORTING EXCESSIVELY.
   ELEMENT FINAL_PART-1.1873 IS DISTORTING EXCESSIVELY.
   ELEMENT FINAL_PART-1.1875 IS DISTORTING EXCESSIVELY.
   ELEMENT FINAL_PART-1.1877 IS DISTORTING EXCESSIVELY.
   ELEMENT FINAL_PART-1.1879 IS DISTORTING EXCESSIVELY.
   ELEMENT FINAL_PART-1.1881 IS DISTORTING EXCESSIVELY.
   ELEMENT FINAL_PART-1.1883 IS DISTORTING EXCESSIVELY.
   ELEMENT FINAL_PART-1.1885 IS DISTORTING EXCESSIVELY.
   ELEMENT FINAL_PART-1.1886 IS DISTORTING EXCESSIVELY.
   ELEMENT FINAL_PART-1.1887 IS DISTORTING EXCESSIVELY.
   ELEMENT FINAL_PART-1.1888 IS DISTORTING EXCESSIVELY.
   ELEMENT FINAL_PART-1.1890 IS DISTORTING EXCESSIVELY.
   ELEMENT FINAL_PART-1.1892 IS DISTORTING EXCESSIVELY.
   ELEMENT FINAL_PART-1.1894 IS DISTORTING EXCESSIVELY.
   ELEMENT FINAL_PART-1.1895 IS DISTORTING EXCESSIVELY.
   ELEMENT FINAL_PART-1.1896 IS DISTORTING EXCESSIVELY.
   ELEMENT FINAL_PART-1.1899 IS DISTORTING EXCESSIVELY.
   ELEMENT FINAL_PART-1.1901 IS DISTORTING EXCESSIVELY.
   ELEMENT FINAL_PART-1.1904 IS DISTORTING EXCESSIVELY.
   ELEMENT FINAL_PART-1.1905 IS DISTORTING EXCESSIVELY.
   ELEMENT FINAL_PART-1.1908 IS DISTORTING EXCESSIVELY.
   ELEMENT FINAL_PART-1.1910 IS DISTORTING EXCESSIVELY.
   ELEMENT FINAL_PART-1.1911 IS DISTORTING EXCESSIVELY.
   ELEMENT FINAL_PART-1.1912 IS DISTORTING EXCESSIVELY.
   ELEMENT FINAL_PART-1.1914 IS DISTORTING EXCESSIVELY.
   ELEMENT FINAL_PART-1.1916 IS DISTORTING EXCESSIVELY.
   ELEMENT FINAL_PART-1.1918 IS DISTORTING EXCESSIVELY.
   ELEMENT FINAL_PART-1.1920 IS DISTORTING EXCESSIVELY.
   ELEMENT FINAL_PART-1.1921 IS DISTORTING EXCESSIVELY.
   ELEMENT FINAL_PART-1.1923 IS DISTORTING EXCESSIVELY.
   ELEMENT FINAL_PART-1.1925 IS DISTORTING EXCESSIVELY.
   ELEMENT FINAL_PART-1.1929 IS DISTORTING EXCESSIVELY.
   ELEMENT FINAL_PART-1.1930 IS DISTORTING EXCESSIVELY.
   ELEMENT FINAL_PART-1.1931 IS DISTORTING EXCESSIVELY.
   ELEMENT FINAL_PART-1.1933 IS DISTORTING EXCESSIVELY.
   ELEMENT FINAL_PART-1.1934 IS DISTORTING EXCESSIVELY.
   ELEMENT FINAL_PART-1.1937 IS DISTORTING EXCESSIVELY.
   ELEMENT FINAL_PART-1.1943 IS DISTORTING EXCESSIVELY.
   ELEMENT FINAL_PART-1.1946 IS DISTORTING EXCESSIVELY.
   ELEMENT FINAL_PART-1.1949 IS DISTORTING EXCESSIVELY.
   ELEMENT FINAL_PART-1.1952 IS DISTORTING EXCESSIVELY.
   ELEMENT FINAL_PART-1.1954 IS DISTORTING EXCESSIVELY.
   ELEMENT FINAL_PART-1.1960 IS DISTORTING EXCESSIVELY.
   ELEMENT FINAL_PART-1.1963 IS DISTORTING EXCESSIVELY.
   ELEMENT FINAL_PART-1.1964 IS DISTORTING EXCESSIVELY.
   ELEMENT FINAL_PART-1.1968 IS DISTORTING EXCESSIVELY.
   ELEMENT FINAL_PART-1.1972 IS DISTORTING EXCESSIVELY.
   ELEMENT FINAL_PART-1.1973 IS DISTORTING EXCESSIVELY.
   ELEMENT FINAL_PART-1.1974 IS DISTORTING EXCESSIVELY.
   ELEMENT FINAL_PART-1.1976 IS DISTORTING EXCESSIVELY.
   ELEMENT FINAL_PART-1.1978 IS DISTORTING EXCESSIVELY.
   ELEMENT FINAL_PART-1.1979 IS DISTORTING EXCESSIVELY.
   ELEMENT FINAL_PART-1.1980 IS DISTORTING EXCESSIVELY.
   ELEMENT FINAL_PART-1.1982 IS DISTORTING EXCESSIVELY.
   ELEMENT FINAL_PART-1.1983 IS DISTORTING EXCESSIVELY.
   ELEMENT FINAL_PART-1.1984 IS DISTORTING EXCESSIVELY.
   ELEMENT FINAL_PART-1.1987 IS DISTORTING EXCESSIVELY.
   ELEMENT FINAL_PART-1.1989 IS DISTORTING EXCESSIVELY.
   ELEMENT FINAL_PART-1.1991 IS DISTORTING EXCESSIVELY.
   ELEMENT FINAL_PART-1.1992 IS DISTORTING EXCESSIVELY.
   ELEMENT FINAL_PART-1.1993 IS DISTORTING EXCESSIVELY.
   ELEMENT FINAL_PART-1.1994 IS DISTORTING EXCESSIVELY.
   ELEMENT FINAL_PART-1.1999 IS DISTORTING EXCESSIVELY.
   ELEMENT FINAL_PART-1.2000 IS DISTORTING EXCESSIVELY.
   ELEMENT FINAL_PART-1.2001 IS DISTORTING EXCESSIVELY.
   ELEMENT FINAL_PART-1.2003 IS DISTORTING EXCESSIVELY.
   ELEMENT FINAL_PART-1.2006 IS DISTORTING EXCESSIVELY.
   ELEMENT FINAL_PART-1.2011 IS DISTORTING EXCESSIVELY.
   ELEMENT FINAL_PART-1.2012 IS DISTORTING EXCESSIVELY.
   ELEMENT FINAL_PART-1.2014 IS DISTORTING EXCESSIVELY.
   ELEMENT FINAL_PART-1.2015 IS DISTORTING EXCESSIVELY.
   ELEMENT FINAL_PART-1.2017 IS DISTORTING EXCESSIVELY.
   ELEMENT FINAL_PART-1.2025 IS DISTORTING EXCESSIVELY.
   ELEMENT FINAL_PART-1.2026 IS DISTORTING EXCESSIVELY.
   ELEMENT FINAL_PART-1.2027 IS DISTORTING EXCESSIVELY.
   ELEMENT FINAL_PART-1.2028 IS DISTORTING EXCESSIVELY.
   ELEMENT FINAL_PART-1.2029 IS DISTORTING EXCESSIVELY.
   ELEMENT FINAL_PART-1.2030 IS DISTORTING EXCESSIVELY.
   ELEMENT FINAL_PART-1.2031 IS DISTORTING EXCESSIVELY.
   ELEMENT FINAL_PART-1.2032 IS DISTORTING EXCESSIVELY.
   ELEMENT FINAL_PART-1.2033 IS DISTORTING EXCESSIVELY.
   ELEMENT FINAL_PART-1.2034 IS DISTORTING EXCESSIVELY.
   ELEMENT FINAL_PART-1.2044 IS DISTORTING EXCESSIVELY.
   ELEMENT FINAL_PART-1.2046 IS DISTORTING EXCESSIVELY.
   ELEMENT FINAL_PART-1.2047 IS DISTORTING EXCESSIVELY.
   ELEMENT FINAL_PART-1.2048 IS DISTORTING EXCESSIVELY.
   ELEMENT FINAL_PART-1.2050 IS DISTORTING EXCESSIVELY.
   ELEMENT FINAL_PART-1.2051 IS DISTORTING EXCESSIVELY.
   ELEMENT FINAL_PART-1.2054 IS DISTORTING EXCESSIVELY.
   ELEMENT FINAL_PART-1.2056 IS DISTORTING EXCESSIVELY.
   ELEMENT FINAL_PART-1.2062 IS DISTORTING EXCESSIVELY.
   ELEMENT FINAL_PART-1.2065 IS DISTORTING EXCESSIVELY.
   ELEMENT FINAL_PART-1.2066 IS DISTORTING EXCESSIVELY.
   ELEMENT FINAL_PART-1.2068 IS DISTORTING EXCESSIVELY.
   ELEMENT FINAL_PART-1.2071 IS DISTORTING EXCESSIVELY.
   ELEMENT FINAL_PART-1.2072 IS DISTORTING EXCESSIVELY.
   ELEMENT FINAL_PART-1.2074 IS DISTORTING EXCESSIVELY.
   ELEMENT FINAL_PART-1.2077 IS DISTORTING EXCESSIVELY.
   ELEMENT FINAL_PART-1.2078 IS DISTORTING EXCESSIVELY.
   ELEMENT FINAL_PART-1.2079 IS DISTORTING EXCESSIVELY.
   ELEMENT FINAL_PART-1.2080 IS DISTORTING EXCESSIVELY.
   ELEMENT FINAL_PART-1.2081 IS DISTORTING EXCESSIVELY.
   ELEMENT FINAL_PART-1.2082 IS DISTORTING EXCESSIVELY.
   ELEMENT FINAL_PART-1.2084 IS DISTORTING EXCESSIVELY.
   ELEMENT FINAL_PART-1.2086 IS DISTORTING EXCESSIVELY.
   ELEMENT FINAL_PART-1.2087 IS DISTORTING EXCESSIVELY.
   ELEMENT FINAL_PART-1.2090 IS DISTORTING EXCESSIVELY.
   ELEMENT FINAL_PART-1.2091 IS DISTORTING EXCESSIVELY.
   ELEMENT FINAL_PART-1.2092 IS DISTORTING EXCESSIVELY.
   ELEMENT FINAL_PART-1.2093 IS DISTORTING EXCESSIVELY.
   ELEMENT FINAL_PART-1.2094 IS DISTORTING EXCESSIVELY.
   ELEMENT FINAL_PART-1.2096 IS DISTORTING EXCESSIVELY.
   ELEMENT FINAL_PART-1.2098 IS DISTORTING EXCESSIVELY.
   ELEMENT FINAL_PART-1.2099 IS DISTORTING EXCESSIVELY.
   ELEMENT FINAL_PART-1.2100 IS DISTORTING EXCESSIVELY.
   ELEMENT FINAL_PART-1.2103 IS DISTORTING EXCESSIVELY.
   ELEMENT FINAL_PART-1.2104 IS DISTORTING EXCESSIVELY.
   ELEMENT FINAL_PART-1.2105 IS DISTORTING EXCESSIVELY.
   ELEMENT FINAL_PART-1.2106 IS DISTORTING EXCESSIVELY.
   ELEMENT FINAL_PART-1.2108 IS DISTORTING EXCESSIVELY.
   ELEMENT FINAL_PART-1.2110 IS DISTORTING EXCESSIVELY.
   ELEMENT FINAL_PART-1.2111 IS DISTORTING EXCESSIVELY.
   ELEMENT FINAL_PART-1.2113 IS DISTORTING EXCESSIVELY.
   ELEMENT FINAL_PART-1.2115 IS DISTORTING EXCESSIVELY.
   ELEMENT FINAL_PART-1.2116 IS DISTORTING EXCESSIVELY.
   ELEMENT FINAL_PART-1.2117 IS DISTORTING EXCESSIVELY.
   ELEMENT FINAL_PART-1.2118 IS DISTORTING EXCESSIVELY.
   ELEMENT FINAL_PART-1.2123 IS DISTORTING EXCESSIVELY.
   ELEMENT FINAL_PART-1.2125 IS DISTORTING EXCESSIVELY.
   ELEMENT FINAL_PART-1.2126 IS DISTORTING EXCESSIVELY.
   ELEMENT FINAL_PART-1.2135 IS DISTORTING EXCESSIVELY.
   ELEMENT FINAL_PART-1.2137 IS DISTORTING EXCESSIVELY.
   ELEMENT FINAL_PART-1.2139 IS DISTORTING EXCESSIVELY.
   ELEMENT FINAL_PART-1.2140 IS DISTORTING EXCESSIVELY.
   ELEMENT FINAL_PART-1.2145 IS DISTORTING EXCESSIVELY.
   ELEMENT FINAL_PART-1.2150 IS DISTORTING EXCESSIVELY.
   ELEMENT FINAL_PART-1.2151 IS DISTORTING EXCESSIVELY.
   ELEMENT FINAL_PART-1.2154 IS DISTORTING EXCESSIVELY.
   ELEMENT FINAL_PART-1.2156 IS DISTORTING EXCESSIVELY.
   ELEMENT FINAL_PART-1.2157 IS DISTORTING EXCESSIVELY.
   ELEMENT FINAL_PART-1.2159 IS DISTORTING EXCESSIVELY.
   ELEMENT FINAL_PART-1.2160 IS DISTORTING EXCESSIVELY.
   ELEMENT FINAL_PART-1.2161 IS DISTORTING EXCESSIVELY.
   ELEMENT FINAL_PART-1.2162 IS DISTORTING EXCESSIVELY.
   ELEMENT FINAL_PART-1.2163 IS DISTORTING EXCESSIVELY.
   ELEMENT FINAL_PART-1.2165 IS DISTORTING EXCESSIVELY.
   ELEMENT FINAL_PART-1.2167 IS DISTORTING EXCESSIVELY.
   ELEMENT FINAL_PART-1.2168 IS DISTORTING EXCESSIVELY.
   ELEMENT FINAL_PART-1.2170 IS DISTORTING EXCESSIVELY.
   ELEMENT FINAL_PART-1.2172 IS DISTORTING EXCESSIVELY.
   ELEMENT FINAL_PART-1.2175 IS DISTORTING EXCESSIVELY.
   ELEMENT FINAL_PART-1.2177 IS DISTORTING EXCESSIVELY.
   ELEMENT FINAL_PART-1.2180 IS DISTORTING EXCESSIVELY.
   ELEMENT FINAL_PART-1.2183 IS DISTORTING EXCESSIVELY.
   ELEMENT FINAL_PART-1.2185 IS DISTORTING EXCESSIVELY.
   ELEMENT FINAL_PART-1.2186 IS DISTORTING EXCESSIVELY.
   ELEMENT FINAL_PART-1.2189 IS DISTORTING EXCESSIVELY.
   ELEMENT FINAL_PART-1.2190 IS DISTORTING EXCESSIVELY.
   ELEMENT FINAL_PART-1.2192 IS DISTORTING EXCESSIVELY.
   ELEMENT FINAL_PART-1.2194 IS DISTORTING EXCESSIVELY.
   ELEMENT FINAL_PART-1.2195 IS DISTORTING EXCESSIVELY.
   ELEMENT FINAL_PART-1.2196 IS DISTORTING EXCESSIVELY.
   ELEMENT FINAL_PART-1.2198 IS DISTORTING EXCESSIVELY.
   ELEMENT FINAL_PART-1.2199 IS DISTORTING EXCESSIVELY.
   ELEMENT FINAL_PART-1.2201 IS DISTORTING EXCESSIVELY.
   ELEMENT FINAL_PART-1.2204 IS DISTORTING EXCESSIVELY.
   ELEMENT FINAL_PART-1.2209 IS DISTORTING EXCESSIVELY.
   ELEMENT FINAL_PART-1.2210 IS DISTORTING EXCESSIVELY.
   ELEMENT FINAL_PART-1.2214 IS DISTORTING EXCESSIVELY.
   ELEMENT FINAL_PART-1.2215 IS DISTORTING EXCESSIVELY.
   ELEMENT FINAL_PART-1.2216 IS DISTORTING EXCESSIVELY.
   ELEMENT FINAL_PART-1.2220 IS DISTORTING EXCESSIVELY.
   ELEMENT FINAL_PART-1.2223 IS DISTORTING EXCESSIVELY.
   ELEMENT FINAL_PART-1.2224 IS DISTORTING EXCESSIVELY.
   ELEMENT FINAL_PART-1.2226 IS DISTORTING EXCESSIVELY.
   ELEMENT FINAL_PART-1.2228 IS DISTORTING EXCESSIVELY.
   ELEMENT FINAL_PART-1.2230 IS DISTORTING EXCESSIVELY.
   ELEMENT FINAL_PART-1.2231 IS DISTORTING EXCESSIVELY.
   ELEMENT FINAL_PART-1.2233 IS DISTORTING EXCESSIVELY.
   ELEMENT FINAL_PART-1.2234 IS DISTORTING EXCESSIVELY.
   ELEMENT FINAL_PART-1.2236 IS DISTORTING EXCESSIVELY.
   ELEMENT FINAL_PART-1.2240 IS DISTORTING EXCESSIVELY.
   ELEMENT FINAL_PART-1.2241 IS DISTORTING EXCESSIVELY.
   ELEMENT FINAL_PART-1.2242 IS DISTORTING EXCESSIVELY.
   ELEMENT FINAL_PART-1.2243 IS DISTORTING EXCESSIVELY.
   ELEMENT FINAL_PART-1.2244 IS DISTORTING EXCESSIVELY.
   ELEMENT FINAL_PART-1.2247 IS DISTORTING EXCESSIVELY.
   ELEMENT FINAL_PART-1.2248 IS DISTORTING EXCESSIVELY.
   ELEMENT FINAL_PART-1.2250 IS DISTORTING EXCESSIVELY.
   ELEMENT FINAL_PART-1.2252 IS DISTORTING EXCESSIVELY.
   ELEMENT FINAL_PART-1.2255 IS DISTORTING EXCESSIVELY.
   ELEMENT FINAL_PART-1.2256 IS DISTORTING EXCESSIVELY.
   ELEMENT FINAL_PART-1.2258 IS DISTORTING EXCESSIVELY.
   ELEMENT FINAL_PART-1.2260 IS DISTORTING EXCESSIVELY.
   ELEMENT FINAL_PART-1.2264 IS DISTORTING EXCESSIVELY.
   ELEMENT FINAL_PART-1.2266 IS DISTORTING EXCESSIVELY.
   ELEMENT FINAL_PART-1.2267 IS DISTORTING EXCESSIVELY.
   ELEMENT FINAL_PART-1.2268 IS DISTORTING EXCESSIVELY.
   ELEMENT FINAL_PART-1.2270 IS DISTORTING EXCESSIVELY.
   ELEMENT FINAL_PART-1.2271 IS DISTORTING EXCESSIVELY.
   ELEMENT FINAL_PART-1.2272 IS DISTORTING EXCESSIVELY.
   ELEMENT FINAL_PART-1.2276 IS DISTORTING EXCESSIVELY.
   ELEMENT FINAL_PART-1.2280 IS DISTORTING EXCESSIVELY.
   ELEMENT FINAL_PART-1.2282 IS DISTORTING EXCESSIVELY.
   ELEMENT FINAL_PART-1.2283 IS DISTORTING EXCESSIVELY.
   ELEMENT FINAL_PART-1.2284 IS DISTORTING EXCESSIVELY.
   ELEMENT FINAL_PART-1.2288 IS DISTORTING EXCESSIVELY.
   ELEMENT FINAL_PART-1.2289 IS DISTORTING EXCESSIVELY.
   ELEMENT FINAL_PART-1.2291 IS DISTORTING EXCESSIVELY.
   ELEMENT FINAL_PART-1.2292 IS DISTORTING EXCESSIVELY.
   ELEMENT FINAL_PART-1.2293 IS DISTORTING EXCESSIVELY.
   ELEMENT FINAL_PART-1.2295 IS DISTORTING EXCESSIVELY.
   ELEMENT FINAL_PART-1.2299 IS DISTORTING EXCESSIVELY.
   ELEMENT FINAL_PART-1.2300 IS DISTORTING EXCESSIVELY.
   ELEMENT FINAL_PART-1.2303 IS DISTORTING EXCESSIVELY.
   ELEMENT FINAL_PART-1.2304 IS DISTORTING EXCESSIVELY.
   ELEMENT FINAL_PART-1.2308 IS DISTORTING EXCESSIVELY.
   ELEMENT FINAL_PART-1.2309 IS DISTORTING EXCESSIVELY.
   ELEMENT FINAL_PART-1.2315 IS DISTORTING EXCESSIVELY.
   ELEMENT FINAL_PART-1.2316 IS DISTORTING EXCESSIVELY.
   ELEMENT FINAL_PART-1.2317 IS DISTORTING EXCESSIVELY.
   ELEMENT FINAL_PART-1.2318 IS DISTORTING EXCESSIVELY.
   ELEMENT FINAL_PART-1.2319 IS DISTORTING EXCESSIVELY.
   ELEMENT FINAL_PART-1.2320 IS DISTORTING EXCESSIVELY.
   ELEMENT FINAL_PART-1.2321 IS DISTORTING EXCESSIVELY.
   ELEMENT FINAL_PART-1.2323 IS DISTORTING EXCESSIVELY.
   ELEMENT FINAL_PART-1.2327 IS DISTORTING EXCESSIVELY.
   ELEMENT FINAL_PART-1.2328 IS DISTORTING EXCESSIVELY.
   ELEMENT FINAL_PART-1.2330 IS DISTORTING EXCESSIVELY.
   ELEMENT FINAL_PART-1.2331 IS DISTORTING EXCESSIVELY.
   ELEMENT FINAL_PART-1.2332 IS DISTORTING EXCESSIVELY.
   ELEMENT FINAL_PART-1.2334 IS DISTORTING EXCESSIVELY.
   ELEMENT FINAL_PART-1.2336 IS DISTORTING EXCESSIVELY.
   ELEMENT FINAL_PART-1.2339 IS DISTORTING EXCESSIVELY.
   ELEMENT FINAL_PART-1.2340 IS DISTORTING EXCESSIVELY.
   ELEMENT FINAL_PART-1.2342 IS DISTORTING EXCESSIVELY.
   ELEMENT FINAL_PART-1.2345 IS DISTORTING EXCESSIVELY.
   ELEMENT FINAL_PART-1.2346 IS DISTORTING EXCESSIVELY.
   ELEMENT FINAL_PART-1.2347 IS DISTORTING EXCESSIVELY.
   ELEMENT FINAL_PART-1.2350 IS DISTORTING EXCESSIVELY.
   ELEMENT FINAL_PART-1.2353 IS DISTORTING EXCESSIVELY.
   ELEMENT FINAL_PART-1.2356 IS DISTORTING EXCESSIVELY.
   ELEMENT FINAL_PART-1.2357 IS DISTORTING EXCESSIVELY.
   ELEMENT FINAL_PART-1.2360 IS DISTORTING EXCESSIVELY.
   ELEMENT FINAL_PART-1.2361 IS DISTORTING EXCESSIVELY.
   ELEMENT FINAL_PART-1.2362 IS DISTORTING EXCESSIVELY.
   ELEMENT FINAL_PART-1.2365 IS DISTORTING EXCESSIVELY.
   ELEMENT FINAL_PART-1.2368 IS DISTORTING EXCESSIVELY.
   ELEMENT FINAL_PART-1.2371 IS DISTORTING EXCESSIVELY.
   ELEMENT FINAL_PART-1.2372 IS DISTORTING EXCESSIVELY.
   ELEMENT FINAL_PART-1.2376 IS DISTORTING EXCESSIVELY.
[...]
   ELEMENT FINAL_PART-1.98504 IS DISTORTING EXCESSIVELY.
   ELEMENT FINAL_PART-1.98512 IS DISTORTING EXCESSIVELY.
   ELEMENT FINAL_PART-1.98554 IS DISTORTING EXCESSIVELY.
   ELEMENT FINAL_PART-1.98572 IS DISTORTING EXCESSIVELY.
   ELEMENT FINAL_PART-1.98573 IS DISTORTING EXCESSIVELY.
   ELEMENT FINAL_PART-1.98576 IS DISTORTING EXCESSIVELY.
   ELEMENT FINAL_PART-1.98577 IS DISTORTING EXCESSIVELY.
   ELEMENT FINAL_PART-1.98579 IS DISTORTING EXCESSIVELY.
   ELEMENT FINAL_PART-1.98580 IS DISTORTING EXCESSIVELY.
   ELEMENT FINAL_PART-1.98595 IS DISTORTING EXCESSIVELY.
   ELEMENT FINAL_PART-1.98606 IS DISTORTING EXCESSIVELY.
   ELEMENT FINAL_PART-1.98619 IS DISTORTING EXCESSIVELY.
   ELEMENT FINAL_PART-1.98620 IS DISTORTING EXCESSIVELY.
   ELEMENT FINAL_PART-1.98634 IS DISTORTING EXCESSIVELY.
   ELEMENT FINAL_PART-1.98678 IS DISTORTING EXCESSIVELY.
   ELEMENT FINAL_PART-1.98721 IS DISTORTING EXCESSIVELY.
   ELEMENT FINAL_PART-1.98737 IS DISTORTING EXCESSIVELY.
   ELEMENT FINAL_PART-1.98754 IS DISTORTING EXCESSIVELY.
   ELEMENT FINAL_PART-1.98767 IS DISTORTING EXCESSIVELY.
   ELEMENT FINAL_PART-1.98768 IS DISTORTING EXCESSIVELY.
   ELEMENT FINAL_PART-1.98772 IS DISTORTING EXCESSIVELY.
   ELEMENT FINAL_PART-1.98775 IS DISTORTING EXCESSIVELY.
   ELEMENT FINAL_PART-1.98790 IS DISTORTING EXCESSIVELY.
   ELEMENT FINAL_PART-1.98821 IS DISTORTING EXCESSIVELY.
   ELEMENT FINAL_PART-1.98876 IS DISTORTING EXCESSIVELY.
   ELEMENT FINAL_PART-1.98917 IS DISTORTING EXCESSIVELY.
   ELEMENT FINAL_PART-1.98922 IS DISTORTING EXCESSIVELY.
   ELEMENT FINAL_PART-1.99039 IS DISTORTING EXCESSIVELY.
   ELEMENT FINAL_PART-1.99082 IS DISTORTING EXCESSIVELY.
   ELEMENT FINAL_PART-1.99117 IS DISTORTING EXCESSIVELY.
   ELEMENT FINAL_PART-1.99239 IS DISTORTING EXCESSIVELY.
   ELEMENT FINAL_PART-1.99270 IS DISTORTING EXCESSIVELY.
   ELEMENT FINAL_PART-1.99274 IS DISTORTING EXCESSIVELY.
   ELEMENT FINAL_PART-1.99396 IS DISTORTING EXCESSIVELY.
   ELEMENT FINAL_PART-1.99397 IS DISTORTING EXCESSIVELY.
   ELEMENT FINAL_PART-1.99403 IS DISTORTING EXCESSIVELY.
   ELEMENT FINAL_PART-1.99407 IS DISTORTING EXCESSIVELY.
   ELEMENT FINAL_PART-1.99408 IS DISTORTING EXCESSIVELY.
   ELEMENT FINAL_PART-1.99409 IS DISTORTING EXCESSIVELY.
   ELEMENT FINAL_PART-1.99595 IS DISTORTING EXCESSIVELY.
   ELEMENT FINAL_PART-1.101777 IS DISTORTING EXCESSIVELY.
   ELEMENT FINAL_PART-1.102213 IS DISTORTING EXCESSIVELY.
   ELEMENT FINAL_PART-1.102215 IS DISTORTING EXCESSIVELY.
   ELEMENT FINAL_PART-1.102226 IS DISTORTING EXCESSIVELY.
   ELEMENT FINAL_PART-1.102228 IS DISTORTING EXCESSIVELY.
   ELEMENT FINAL_PART-1.102243 IS DISTORTING EXCESSIVELY.
   ELEMENT FINAL_PART-1.102245 IS DISTORTING EXCESSIVELY.
   ELEMENT FINAL_PART-1.102247 IS DISTORTING EXCESSIVELY.
   ELEMENT FINAL_PART-1.102249 IS DISTORTING EXCESSIVELY.
   ELEMENT FINAL_PART-1.102262 IS DISTORTING EXCESSIVELY.
   ELEMENT FINAL_PART-1.102264 IS DISTORTING EXCESSIVELY.
   ELEMENT FINAL_PART-1.102266 IS DISTORTING EXCESSIVELY.
   ELEMENT FINAL_PART-1.102268 IS DISTORTING EXCESSIVELY.
   ELEMENT FINAL_PART-1.102279 IS DISTORTING EXCESSIVELY.
   ELEMENT FINAL_PART-1.102280 IS DISTORTING EXCESSIVELY.
   ELEMENT FINAL_PART-1.102281 IS DISTORTING EXCESSIVELY.
   ELEMENT FINAL_PART-1.102282 IS DISTORTING EXCESSIVELY.
   ELEMENT FINAL_PART-1.102283 IS DISTORTING EXCESSIVELY.
   ELEMENT FINAL_PART-1.102284 IS DISTORTING EXCESSIVELY.
   ELEMENT FINAL_PART-1.102296 IS DISTORTING EXCESSIVELY.
   ELEMENT FINAL_PART-1.102297 IS DISTORTING EXCESSIVELY.
   ELEMENT FINAL_PART-1.102298 IS DISTORTING EXCESSIVELY.
   ELEMENT FINAL_PART-1.102299 IS DISTORTING EXCESSIVELY.
   ELEMENT FINAL_PART-1.102300 IS DISTORTING EXCESSIVELY.
   ELEMENT FINAL_PART-1.102301 IS DISTORTING EXCESSIVELY.
   ELEMENT FINAL_PART-1.102302 IS DISTORTING EXCESSIVELY.
   ELEMENT FINAL_PART-1.102309 IS DISTORTING EXCESSIVELY.
   ELEMENT FINAL_PART-1.102311 IS DISTORTING EXCESSIVELY.
   ELEMENT FINAL_PART-1.102312 IS DISTORTING EXCESSIVELY.
   ELEMENT FINAL_PART-1.102313 IS DISTORTING EXCESSIVELY.
   ELEMENT FINAL_PART-1.102314 IS DISTORTING EXCESSIVELY.
   ELEMENT FINAL_PART-1.102315 IS DISTORTING EXCESSIVELY.
   ELEMENT FINAL_PART-1.102316 IS DISTORTING EXCESSIVELY.
   ELEMENT FINAL_PART-1.102317 IS DISTORTING EXCESSIVELY.
   ELEMENT FINAL_PART-1.102318 IS DISTORTING EXCESSIVELY.
   ELEMENT FINAL_PART-1.102320 IS DISTORTING EXCESSIVELY.
   ELEMENT FINAL_PART-1.102322 IS DISTORTING EXCESSIVELY.
   ELEMENT FINAL_PART-1.102323 IS DISTORTING EXCESSIVELY.
   ELEMENT FINAL_PART-1.102324 IS DISTORTING EXCESSIVELY.
   ELEMENT FINAL_PART-1.102326 IS DISTORTING EXCESSIVELY.
   ELEMENT FINAL_PART-1.102329 IS DISTORTING EXCESSIVELY.
   ELEMENT FINAL_PART-1.102331 IS DISTORTING EXCESSIVELY.
   ELEMENT FINAL_PART-1.102334 IS DISTORTING EXCESSIVELY.
   ELEMENT FINAL_PART-1.102336 IS DISTORTING EXCESSIVELY.
   ELEMENT FINAL_PART-1.102337 IS DISTORTING EXCESSIVELY.
   ELEMENT FINAL_PART-1.102338 IS DISTORTING EXCESSIVELY.
   ELEMENT FINAL_PART-1.102339 IS DISTORTING EXCESSIVELY.
   ELEMENT FINAL_PART-1.102340 IS DISTORTING EXCESSIVELY.
   ELEMENT FINAL_PART-1.102343 IS DISTORTING EXCESSIVELY.
   ELEMENT FINAL_PART-1.102345 IS DISTORTING EXCESSIVELY.
   ELEMENT FINAL_PART-1.102347 IS DISTORTING EXCESSIVELY.
   ELEMENT FINAL_PART-1.102349 IS DISTORTING EXCESSIVELY.
   ELEMENT FINAL_PART-1.102351 IS DISTORTING EXCESSIVELY.
   ELEMENT FINAL_PART-1.102353 IS DISTORTING EXCESSIVELY.
   ELEMENT FINAL_PART-1.102356 IS DISTORTING EXCESSIVELY.
   ELEMENT FINAL_PART-1.102357 IS DISTORTING EXCESSIVELY.
   ELEMENT FINAL_PART-1.102358 IS DISTORTING EXCESSIVELY.
   ELEMENT FINAL_PART-1.102359 IS DISTORTING EXCESSIVELY.
   ELEMENT FINAL_PART-1.102360 IS DISTORTING EXCESSIVELY.
   ELEMENT FINAL_PART-1.102362 IS DISTORTING EXCESSIVELY.
   ELEMENT FINAL_PART-1.102364 IS DISTORTING EXCESSIVELY.
   ELEMENT FINAL_PART-1.102369 IS DISTORTING EXCESSIVELY.
   ELEMENT FINAL_PART-1.102372 IS DISTORTING EXCESSIVELY.
   ELEMENT FINAL_PART-1.102374 IS DISTORTING EXCESSIVELY.
   ELEMENT FINAL_PART-1.102375 IS DISTORTING EXCESSIVELY.
   ELEMENT FINAL_PART-1.102376 IS DISTORTING EXCESSIVELY.
   ELEMENT FINAL_PART-1.102378 IS DISTORTING EXCESSIVELY.
   ELEMENT FINAL_PART-1.102380 IS DISTORTING EXCESSIVELY.
   ELEMENT FINAL_PART-1.102381 IS DISTORTING EXCESSIVELY.
   ELEMENT FINAL_PART-1.102384 IS DISTORTING EXCESSIVELY.
   ELEMENT FINAL_PART-1.102386 IS DISTORTING EXCESSIVELY.
   ELEMENT FINAL_PART-1.102388 IS DISTORTING EXCESSIVELY.
   ELEMENT FINAL_PART-1.102390 IS DISTORTING EXCESSIVELY.
   ELEMENT FINAL_PART-1.102395 IS DISTORTING EXCESSIVELY.
   ELEMENT FINAL_PART-1.102399 IS DISTORTING EXCESSIVELY.
   ELEMENT FINAL_PART-1.102403 IS DISTORTING EXCESSIVELY.
   ELEMENT FINAL_PART-1.102405 IS DISTORTING EXCESSIVELY.
   ELEMENT FINAL_PART-1.102407 IS DISTORTING EXCESSIVELY.
   ELEMENT FINAL_PART-1.102409 IS DISTORTING EXCESSIVELY.
   ELEMENT FINAL_PART-1.102411 IS DISTORTING EXCESSIVELY.
   ELEMENT FINAL_PART-1.102413 IS DISTORTING EXCESSIVELY.
   ELEMENT FINAL_PART-1.102414 IS DISTORTING EXCESSIVELY.
   ELEMENT FINAL_PART-1.102415 IS DISTORTING EXCESSIVELY.
   ELEMENT FINAL_PART-1.102416 IS DISTORTING EXCESSIVELY.
   ELEMENT FINAL_PART-1.102417 IS DISTORTING EXCESSIVELY.
   ELEMENT FINAL_PART-1.102419 IS DISTORTING EXCESSIVELY.
   ELEMENT FINAL_PART-1.102420 IS DISTORTING EXCESSIVELY.
   ELEMENT FINAL_PART-1.102421 IS DISTORTING EXCESSIVELY.
   ELEMENT FINAL_PART-1.102423 IS DISTORTING EXCESSIVELY.
   ELEMENT FINAL_PART-1.102424 IS DISTORTING EXCESSIVELY.
   ELEMENT FINAL_PART-1.102426 IS DISTORTING EXCESSIVELY.
   ELEMENT FINAL_PART-1.102427 IS DISTORTING EXCESSIVELY.
   ELEMENT FINAL_PART-1.102429 IS DISTORTING EXCESSIVELY.
   ELEMENT FINAL_PART-1.102430 IS DISTORTING EXCESSIVELY.
   ELEMENT FINAL_PART-1.102431 IS DISTORTING EXCESSIVELY.
   ELEMENT FINAL_PART-1.102433 IS DISTORTING EXCESSIVELY.
   ELEMENT FINAL_PART-1.102435 IS DISTORTING EXCESSIVELY.
   ELEMENT FINAL_PART-1.102437 IS DISTORTING EXCESSIVELY.
   ELEMENT FINAL_PART-1.102438 IS DISTORTING EXCESSIVELY.
   ELEMENT FINAL_PART-1.102440 IS DISTORTING EXCESSIVELY.
   ELEMENT FINAL_PART-1.102442 IS DISTORTING EXCESSIVELY.
   ELEMENT FINAL_PART-1.102447 IS DISTORTING EXCESSIVELY.
   ELEMENT FINAL_PART-1.102449 IS DISTORTING EXCESSIVELY.
   ELEMENT FINAL_PART-1.102450 IS DISTORTING EXCESSIVELY.
   ELEMENT FINAL_PART-1.102452 IS DISTORTING EXCESSIVELY.
   ELEMENT FINAL_PART-1.102454 IS DISTORTING EXCESSIVELY.
   ELEMENT FINAL_PART-1.102455 IS DISTORTING EXCESSIVELY.
   ELEMENT FINAL_PART-1.102457 IS DISTORTING EXCESSIVELY.

 ***WARNING: EXCESSIVE DISTORTION AT A TOTAL OF 6576 INTEGRATION POINTS IN 
             SOLID (CONTINUUM) ELEMENTS
 

 ***NOTE: ELEMENTS ARE DISTORTING EXCESSIVELY. CONVERGENCE IS JUDGED UNLIKELY.


  INCREMENT     1 STARTS. ATTEMPT NUMBER  4, TIME INCREMENT  1.562E-02
 
	SYMMETRIC PURE THREAD-BASED DIRECT SPARSE SOLVER RUNNING ON
 	1 HOST x 1 MPI RANK PER HOST x 1 THREAD PER RANK
        NUMBER OF EQUATIONS:  409818
        NUMBER OF RHS:        1
        NUMBER OF FLOPS:      8.048e+10
        SOLVER ELAPSED TIME:  5.2s

               CONVERGENCE CHECKS FOR EQUILIBRIUM ITERATION     1


 AVERAGE FORCE                       1.66       TIME AVG. FORCE        1.66    
 LARGEST SCALED RESIDUAL FORCE      -31.0       AT NODE      45814   DOF  3
   INSTANCE: FINAL_PART-1                                                                    
  CORRESPONDING RESIDUAL FORCE      -31.0    
 LARGEST INCREMENT OF DISP.        -6.014E-03   AT NODE        289   DOF  3
   INSTANCE: FINAL_PART-1                                                                    
 LARGEST CORRECTION TO DISP.       -6.014E-03   AT NODE        289   DOF  3
   INSTANCE: FINAL_PART-1                                                                    
          FORCE     EQUILIBRIUM NOT ACHIEVED WITHIN TOLERANCE.
 
	SYMMETRIC PURE THREAD-BASED DIRECT SPARSE SOLVER RUNNING ON
 	1 HOST x 1 MPI RANK PER HOST x 1 THREAD PER RANK
        NUMBER OF EQUATIONS:  409818
        NUMBER OF RHS:        1
        NUMBER OF FLOPS:      8.048e+10
        SOLVER ELAPSED TIME:  5.1s

               CONVERGENCE CHECKS FOR EQUILIBRIUM ITERATION     2


 AVERAGE FORCE                      2.702E-02   TIME AVG. FORCE       2.702E-02
 LARGEST SCALED RESIDUAL FORCE      0.461       AT NODE      45814   DOF  3
   INSTANCE: FINAL_PART-1                                                                    
  CORRESPONDING RESIDUAL FORCE      0.461    
 LARGEST INCREMENT OF DISP.        -5.967E-03   AT NODE        289   DOF  3
   INSTANCE: FINAL_PART-1                                                                    
 LARGEST CORRECTION TO DISP.       -3.600E-04   AT NODE        289   DOF  1
   INSTANCE: FINAL_PART-1                                                                    
          FORCE     EQUILIBRIUM NOT ACHIEVED WITHIN TOLERANCE.
 
	SYMMETRIC PURE THREAD-BASED DIRECT SPARSE SOLVER RUNNING ON
 	1 HOST x 1 MPI RANK PER HOST x 1 THREAD PER RANK
        NUMBER OF EQUATIONS:  409818
        NUMBER OF RHS:        1
        NUMBER OF FLOPS:      8.048e+10
        SOLVER ELAPSED TIME:  5.0s
 

 ***WARNING: THE SYSTEM MATRIX HAS 10 NEGATIVE EIGENVALUES.
             EXPLANATIONS ARE SUGGESTED AFTER THE FIRST OCCURRENCE OF THIS MESSAGE.

               CONVERGENCE CHECKS FOR EQUILIBRIUM ITERATION     3


 AVERAGE FORCE                      2.552E-03   TIME AVG. FORCE       2.552E-03
 LARGEST SCALED RESIDUAL FORCE      0.149       AT NODE      13369   DOF  2
   INSTANCE: FINAL_PART-1                                                                    
  CORRESPONDING RESIDUAL FORCE      0.149    
 LARGEST INCREMENT OF DISP.        -5.962E-03   AT NODE        289   DOF  3
   INSTANCE: FINAL_PART-1                                                                    
 LARGEST CORRECTION TO DISP.       -3.963E-04   AT NODE        120   DOF  2
   INSTANCE: FINAL_PART-1                                                                    
          FORCE     EQUILIBRIUM NOT ACHIEVED WITHIN TOLERANCE.
 
	SYMMETRIC PURE THREAD-BASED DIRECT SPARSE SOLVER RUNNING ON
 	1 HOST x 1 MPI RANK PER HOST x 1 THREAD PER RANK
        NUMBER OF EQUATIONS:  409818
        NUMBER OF RHS:        1
        NUMBER OF FLOPS:      8.048e+10
        SOLVER ELAPSED TIME:  4.9s
 

 ***WARNING: THE SYSTEM MATRIX HAS 8 NEGATIVE EIGENVALUES.
             EXPLANATIONS ARE SUGGESTED AFTER THE FIRST OCCURRENCE OF THIS MESSAGE.

               CONVERGENCE CHECKS FOR EQUILIBRIUM ITERATION     4


 AVERAGE FORCE                      1.569E-03   TIME AVG. FORCE       1.569E-03
 LARGEST SCALED RESIDUAL FORCE       2.03       AT NODE       9241   DOF  3
   INSTANCE: FINAL_PART-1                                                                    
  CORRESPONDING RESIDUAL FORCE       2.03    
 LARGEST INCREMENT OF DISP.         5.937E-03   AT NODE        275   DOF  3
   INSTANCE: FINAL_PART-1                                                                    
 LARGEST CORRECTION TO DISP.       -9.519E-05   AT NODE         86   DOF  3
   INSTANCE: FINAL_PART-1                                                                    
          FORCE     EQUILIBRIUM NOT ACHIEVED WITHIN TOLERANCE.
 

 ***NOTE: THE SOLUTION APPEARS TO BE DIVERGING. CONVERGENCE IS JUDGED UNLIKELY.


  INCREMENT     1 STARTS. ATTEMPT NUMBER  5, TIME INCREMENT  3.906E-03
 
	SYMMETRIC PURE THREAD-BASED DIRECT SPARSE SOLVER RUNNING ON
 	1 HOST x 1 MPI RANK PER HOST x 1 THREAD PER RANK
        NUMBER OF EQUATIONS:  409818
        NUMBER OF RHS:        1
        NUMBER OF FLOPS:      8.048e+10
        SOLVER ELAPSED TIME:  4.9s

               CONVERGENCE CHECKS FOR EQUILIBRIUM ITERATION     1


 AVERAGE FORCE                      0.102       TIME AVG. FORCE       0.102    
 LARGEST SCALED RESIDUAL FORCE      -1.91       AT NODE      45814   DOF  3
   INSTANCE: FINAL_PART-1                                                                    
  CORRESPONDING RESIDUAL FORCE      -1.91    
 LARGEST INCREMENT OF DISP.        -1.490E-03   AT NODE        289   DOF  3
   INSTANCE: FINAL_PART-1                                                                    
 LARGEST CORRECTION TO DISP.       -1.490E-03   AT NODE        289   DOF  3
   INSTANCE: FINAL_PART-1                                                                    
          FORCE     EQUILIBRIUM NOT ACHIEVED WITHIN TOLERANCE.
 
	SYMMETRIC PURE THREAD-BASED DIRECT SPARSE SOLVER RUNNING ON
 	1 HOST x 1 MPI RANK PER HOST x 1 THREAD PER RANK
        NUMBER OF EQUATIONS:  409818
        NUMBER OF RHS:        1
        NUMBER OF FLOPS:      8.048e+10
        SOLVER ELAPSED TIME:  5.0s

               CONVERGENCE CHECKS FOR EQUILIBRIUM ITERATION     2


 AVERAGE FORCE                      4.092E-04   TIME AVG. FORCE       4.092E-04
 LARGEST SCALED RESIDUAL FORCE      1.740E-03   AT NODE      45814   DOF  3
   INSTANCE: FINAL_PART-1                                                                    
  CORRESPONDING RESIDUAL FORCE      1.740E-03
 LARGEST INCREMENT OF DISP.        -1.489E-03   AT NODE        289   DOF  3
   INSTANCE: FINAL_PART-1                                                                    
 LARGEST CORRECTION TO DISP.       -3.044E-05   AT NODE       2729   DOF  2
   INSTANCE: FINAL_PART-1                                                                    
          FORCE     EQUILIBRIUM NOT ACHIEVED WITHIN TOLERANCE.
 
	SYMMETRIC PURE THREAD-BASED DIRECT SPARSE SOLVER RUNNING ON
 	1 HOST x 1 MPI RANK PER HOST x 1 THREAD PER RANK
        NUMBER OF EQUATIONS:  409818
        NUMBER OF RHS:        1
        NUMBER OF FLOPS:      8.048e+10
        SOLVER ELAPSED TIME:  5.8s
 

 ***WARNING: THE SYSTEM MATRIX HAS 1 NEGATIVE EIGENVALUES.
             EXPLANATIONS ARE SUGGESTED AFTER THE FIRST OCCURRENCE OF THIS MESSAGE.

               CONVERGENCE CHECKS FOR EQUILIBRIUM ITERATION     3


 AVERAGE FORCE                      2.509E-03   TIME AVG. FORCE       2.509E-03
 LARGEST SCALED RESIDUAL FORCE      4.424E-02   AT NODE       9421   DOF  3
   INSTANCE: FINAL_PART-1                                                                    
  CORRESPONDING RESIDUAL FORCE      4.424E-02
 LARGEST INCREMENT OF DISP.        -1.264E-03   AT NODE        289   DOF  3
   INSTANCE: FINAL_PART-1                                                                    
 LARGEST CORRECTION TO DISP.        2.256E-04   AT NODE        289   DOF  3
   INSTANCE: FINAL_PART-1                                                                    
          FORCE     EQUILIBRIUM NOT ACHIEVED WITHIN TOLERANCE.
 
	SYMMETRIC PURE THREAD-BASED DIRECT SPARSE SOLVER RUNNING ON
 	1 HOST x 1 MPI RANK PER HOST x 1 THREAD PER RANK
        NUMBER OF EQUATIONS:  409818
        NUMBER OF RHS:        1
        NUMBER OF FLOPS:      8.048e+10
        SOLVER ELAPSED TIME:  7.3s

               CONVERGENCE CHECKS FOR EQUILIBRIUM ITERATION     4


 AVERAGE FORCE                      2.496E-04   TIME AVG. FORCE       2.496E-04
 LARGEST SCALED RESIDUAL FORCE     -1.838E-04   AT NODE      37669   DOF  3
   INSTANCE: FINAL_PART-1                                                                    
  CORRESPONDING RESIDUAL FORCE     -1.838E-04
 LARGEST INCREMENT OF DISP.        -1.272E-03   AT NODE        289   DOF  3
   INSTANCE: FINAL_PART-1                                                                    
 LARGEST CORRECTION TO DISP.       -8.540E-06   AT NODE        289   DOF  3
   INSTANCE: FINAL_PART-1                                                                    
          FORCE     EQUILIBRIUM NOT ACHIEVED WITHIN TOLERANCE.
 
	SYMMETRIC PURE THREAD-BASED DIRECT SPARSE SOLVER RUNNING ON
 	1 HOST x 1 MPI RANK PER HOST x 1 THREAD PER RANK
        NUMBER OF EQUATIONS:  409818
        NUMBER OF RHS:        1
        NUMBER OF FLOPS:      8.048e+10
        SOLVER ELAPSED TIME:  6.6s

               CONVERGENCE CHECKS FOR EQUILIBRIUM ITERATION     5


 AVERAGE FORCE                      3.427E-03   TIME AVG. FORCE       3.427E-03
 LARGEST SCALED RESIDUAL FORCE      6.055E-02   AT NODE       9421   DOF  3
   INSTANCE: FINAL_PART-1                                                                    
  CORRESPONDING RESIDUAL FORCE      6.055E-02
 LARGEST INCREMENT OF DISP.        -1.537E-03   AT NODE        289   DOF  3
   INSTANCE: FINAL_PART-1                                                                    
 LARGEST CORRECTION TO DISP.       -2.647E-04   AT NODE        289   DOF  3
   INSTANCE: FINAL_PART-1                                                                    
          FORCE     EQUILIBRIUM NOT ACHIEVED WITHIN TOLERANCE.
 

 ***NOTE: THE SOLUTION APPEARS TO BE DIVERGING. CONVERGENCE IS JUDGED UNLIKELY.
 

 ***ERROR: TOO MANY ATTEMPTS MADE FOR THIS INCREMENT



     ANALYSIS SUMMARY:
     TOTAL OF          1  INCREMENTS
                       5  CUTBACKS IN AUTOMATIC INCREMENTATION
                      14  ITERATIONS INCLUDING CONTACT ITERATIONS IF PRESENT
                      14  PASSES THROUGH THE EQUATION SOLVER OF WHICH 
                      14  INVOLVE MATRIX DECOMPOSITION, INCLUDING
                       0  DECOMPOSITION(S) OF THE MASS MATRIX
                       1  REORDERING OF EQUATIONS TO MINIMIZE WAVEFRONT
                       0  ADDITIONAL RESIDUAL EVALUATIONS FOR LINE SEARCHES
                       0  ADDITIONAL OPERATOR EVALUATIONS FOR LINE SEARCHES
                       1  WARNING MESSAGES DURING USER INPUT PROCESSING
                       8  WARNING MESSAGES DURING ANALYSIS
                       0  ANALYSIS WARNINGS ARE NUMERICAL PROBLEM MESSAGES
                       5  ANALYSIS WARNINGS ARE NEGATIVE EIGENVALUE MESSAGES
                       1  ERROR MESSAGES



     JOB TIME SUMMARY
       USER TIME (SEC)      =     4.44E+02
       SYSTEM TIME (SEC)    =      73.    
       TOTAL CPU TIME (SEC) =     5.16E+02
       WALLCLOCK TIME (SEC) =          180
       MEMORY PEAK (GB)     =            0
