1

   Abaqus 2025                                  Date 22-Feb-2026   Time 15:38:47
   For use by UNIVERSITAET STUTTGART under license from Dassault Systemes or its subsidiary.

                                                                                 
                                                                                 
 STEP    1     INCREMENT     1     STEP TIME    0.00    


                        S T E P       1     S T A T I C   A N A L Y S I S


                                                                                          

     AUTOMATIC TIME CONTROL WITH -
          A SUGGESTED INITIAL TIME INCREMENT OF                 1.00    
          AND A TOTAL TIME PERIOD OF                            1.00    
          THE MINIMUM TIME INCREMENT ALLOWED IS                1.000E-05
          THE MAXIMUM TIME INCREMENT ALLOWED IS                 1.00    

     LINEAR EQUATION SOLVER TYPE         DIRECT SPARSE

 CONVERGENCE TOLERANCE PARAMETERS FOR FORCE    
     CRITERION FOR RESIDUAL FORCE     FOR A NONLINEAR PROBLEM          5.000E-03
     CRITERION FOR DISP.    CORRECTION IN A NONLINEAR PROBLEM          1.000E-02
     INITIAL VALUE OF TIME AVERAGE FORCE                               1.000E-02
     AVERAGE FORCE     IS TIME AVERAGE FORCE    
     ALTERNATE CRIT. FOR RESIDUAL FORCE     FOR A NONLINEAR PROBLEM    2.000E-02
     CRITERION FOR ZERO FORCE     RELATIVE TO TIME AVRG. FORCE         1.000E-05
     CRITERION FOR RESIDUAL FORCE     WHEN THERE IS ZERO FLUX          1.000E-05
     CRITERION FOR DISP.    CORRECTION WHEN THERE IS ZERO FLUX         1.000E-03
     CRITERION FOR RESIDUAL FORCE     FOR A LINEAR INCREMENT           1.000E-08
     FIELD CONVERSION RATIO                                             1.00    
     CRITERION FOR ZERO FORCE     REL. TO TIME AVRG. MAX. FORCE        1.000E-05
     CRITERION FOR ZERO DISP.    RELATIVE TO CHARACTERISTIC LENGTH     1.000E-08

     VOLUMETRIC STRAIN COMPATIBILITY TOLERANCE FOR HYBRID SOLIDS       1.000E-05
     AXIAL STRAIN COMPATIBILITY TOLERANCE FOR HYBRID BEAMS             1.000E-05
     TRANS. SHEAR STRAIN COMPATIBILITY TOLERANCE FOR HYBRID BEAMS      1.000E-05
     SOFT CONTACT CONSTRAINT COMPATIBILITY TOLERANCE FOR P>P0          5.000E-03
     SOFT CONTACT CONSTRAINT COMPATIBILITY TOLERANCE FOR P=0.0         0.100    
     CONTACT FORCE ERROR TOLERANCE FOR CONVERT SDI=YES                 1.00    
     DISPLACEMENT COMPATIBILITY TOLERANCE FOR DCOUP ELEMENTS           1.000E-05
     ROTATION COMPATIBILITY TOLERANCE FOR DCOUP ELEMENTS               1.000E-05

 EQUILIBRIUM WILL BE CHECKED FOR SEVERE DISCONTINUITY ITERATIONS

 TIME INCREMENTATION CONTROL PARAMETERS:
     FIRST EQUILIBRIUM ITERATION FOR CONSECUTIVE DIVERGENCE CHECK              4
     EQUILIBRIUM ITERATION AT WHICH LOG. CONVERGENCE RATE CHECK BEGINS         8
     EQUILIBRIUM ITERATION AFTER WHICH ALTERNATE RESIDUAL IS USED              9
     MAXIMUM EQUILIBRIUM ITERATIONS ALLOWED                                   16
     EQUILIBRIUM ITERATION COUNT FOR CUT-BACK IN NEXT INCREMENT               10
     MAXIMUM EQUILIB. ITERS IN TWO INCREMENTS FOR TIME INCREMENT INCREASE      4
     MAXIMUM ITERATIONS FOR SEVERE DISCONTINUITIES                            50
     MAXIMUM ATTEMPTS ALLOWED IN AN INCREMENT                                  5
     MAXIMUM DISCON. ITERS IN TWO INCREMENTS FOR TIME INCREMENT INCREASE      50
     MAXIMUM CONTACT AUGMENTATIONS FOR *SURFACE BEHAVIOR,AUGMENTED LAGRANGE   50
     CUT-BACK FACTOR AFTER DIVERGENCE                                 0.2500    
     CUT-BACK FACTOR FOR TOO SLOW CONVERGENCE                         0.5000    
     CUT-BACK FACTOR AFTER TOO MANY EQUILIBRIUM ITERATIONS            0.7500    
     CUT-BACK FACTOR AFTER TOO MANY SEVERE DISCONTINUITY ITERATIONS   0.2500    
     CUT-BACK FACTOR AFTER PROBLEMS IN ELEMENT ASSEMBLY               0.2500    
     INCREASE FACTOR AFTER TWO INCREMENTS THAT CONVERGE QUICKLY        1.500    
     MAX. TIME INCREMENT INCREASE FACTOR ALLOWED                       1.500    
     MAX. TIME INCREMENT INCREASE FACTOR ALLOWED (DYNAMICS)            1.250    
     MAX. TIME INCREMENT INCREASE FACTOR ALLOWED (DIFFUSION)           2.000    
     MINIMUM TIME INCREMENT RATIO FOR EXTRAPOLATION TO OCCUR          0.1000    
     MAX. RATIO OF TIME INCREMENT TO STABILITY LIMIT                   1.000    
     FRACTION OF STABILITY LIMIT FOR NEW TIME INCREMENT               0.9500    
     TIME INCREMENT INCREASE FACTOR BEFORE A TIME POINT                1.000    
     GLOBAL STABILIZATION CONTROL IS NOT USED

          PRINT OF INCREMENT NUMBER, TIME, ETC., EVERY    1  INCREMENTS

     THE MAXIMUM NUMBER OF INCREMENTS IN THIS STEP IS                     100

          LARGE DISPLACEMENT THEORY WILL BE USED

     LINEAR EXTRAPOLATION WILL BE USED

     CHARACTERISTIC ELEMENT LENGTH     7.623E-04

     DETAILS REGARDING ACTUAL SOLUTION WAVEFRONT REQUESTED

     DETAILED OUTPUT OF DIAGNOSTICS TO DATABASE REQUESTED

     PRINT OF INCREMENT NUMBER, TIME, ETC., TO THE MESSAGE FILE EVERY     1  INCREMENTS

     COLLECTING MODEL CONSTRAINT INFORMATION FOR OVERCONSTRAINT CHECKS

     COLLECTING STEP CONSTRAINT INFORMATION FOR OVERCONSTRAINT CHECKS


  INCREMENT     1 STARTS. ATTEMPT NUMBER  1, TIME INCREMENT   1.00    
 
	SYMMETRIC PURE THREAD-BASED DIRECT SPARSE SOLVER RUNNING ON
 	1 HOST x 1 MPI RANK PER HOST x 1 THREAD PER RANK
        NUMBER OF EQUATIONS:  107862
        NUMBER OF RHS:        1
        NUMBER OF FLOPS:      7.476e+09
        SOLVER ELAPSED TIME:  269ms

               CONVERGENCE CHECKS FOR EQUILIBRIUM ITERATION     1


 AVERAGE FORCE                      2.244E+04   TIME AVG. FORCE       2.244E+04
 LARGEST SCALED RESIDUAL FORCE     -4.293E+05   AT NODE       5412   DOF  1
   INSTANCE: FINAL_PART-1                                                                    
  CORRESPONDING RESIDUAL FORCE     -4.293E+05
 LARGEST INCREMENT OF DISP.        -0.535       AT NODE       5018   DOF  3
   INSTANCE: FINAL_PART-1                                                                    
 LARGEST CORRECTION TO DISP.       -0.535       AT NODE       5018   DOF  3
   INSTANCE: FINAL_PART-1                                                                    
          FORCE     EQUILIBRIUM NOT ACHIEVED WITHIN TOLERANCE.
 
	SYMMETRIC PURE THREAD-BASED DIRECT SPARSE SOLVER RUNNING ON
 	1 HOST x 1 MPI RANK PER HOST x 1 THREAD PER RANK
        NUMBER OF EQUATIONS:  107862
        NUMBER OF RHS:        1
        NUMBER OF FLOPS:      7.476e+09
        SOLVER ELAPSED TIME:  274ms
 

 ***WARNING: THE SYSTEM MATRIX HAS 54413 NEGATIVE EIGENVALUES.

     NEGATIVE EIGENVALUES MEAN THAT THE SYSTEM MATRIX IS NOT 
     POSITIVE DEFINITE:
     FOR EXAMPLE, A BIFURCATION (BUCKLING) LOAD MAY HAVE BEEN EXCEEDED.
   ELEMENT FINAL_PART-1.5 IS DISTORTING EXCESSIVELY.
   ELEMENT FINAL_PART-1.10 IS DISTORTING EXCESSIVELY.
   ELEMENT FINAL_PART-1.13 IS DISTORTING EXCESSIVELY.
   ELEMENT FINAL_PART-1.15 IS DISTORTING EXCESSIVELY.
   ELEMENT FINAL_PART-1.16 IS DISTORTING EXCESSIVELY.
   ELEMENT FINAL_PART-1.24 IS DISTORTING EXCESSIVELY.
   ELEMENT FINAL_PART-1.28 IS DISTORTING EXCESSIVELY.
   ELEMENT FINAL_PART-1.29 IS DISTORTING EXCESSIVELY.
   ELEMENT FINAL_PART-1.35 IS DISTORTING EXCESSIVELY.
   ELEMENT FINAL_PART-1.38 IS DISTORTING EXCESSIVELY.
   ELEMENT FINAL_PART-1.42 IS DISTORTING EXCESSIVELY.
   ELEMENT FINAL_PART-1.44 IS DISTORTING EXCESSIVELY.
   ELEMENT FINAL_PART-1.45 IS DISTORTING EXCESSIVELY.
   ELEMENT FINAL_PART-1.47 IS DISTORTING EXCESSIVELY.
   ELEMENT FINAL_PART-1.48 IS DISTORTING EXCESSIVELY.
   ELEMENT FINAL_PART-1.49 IS DISTORTING EXCESSIVELY.
   ELEMENT FINAL_PART-1.50 IS DISTORTING EXCESSIVELY.
   ELEMENT FINAL_PART-1.53 IS DISTORTING EXCESSIVELY.
   ELEMENT FINAL_PART-1.55 IS DISTORTING EXCESSIVELY.
   ELEMENT FINAL_PART-1.56 IS DISTORTING EXCESSIVELY.
   ELEMENT FINAL_PART-1.57 IS DISTORTING EXCESSIVELY.
   ELEMENT FINAL_PART-1.60 IS DISTORTING EXCESSIVELY.
   ELEMENT FINAL_PART-1.63 IS DISTORTING EXCESSIVELY.
   ELEMENT FINAL_PART-1.65 IS DISTORTING EXCESSIVELY.
   ELEMENT FINAL_PART-1.69 IS DISTORTING EXCESSIVELY.
   ELEMENT FINAL_PART-1.70 IS DISTORTING EXCESSIVELY.
   ELEMENT FINAL_PART-1.71 IS DISTORTING EXCESSIVELY.
   ELEMENT FINAL_PART-1.73 IS DISTORTING EXCESSIVELY.
   ELEMENT FINAL_PART-1.76 IS DISTORTING EXCESSIVELY.
   ELEMENT FINAL_PART-1.77 IS DISTORTING EXCESSIVELY.
   ELEMENT FINAL_PART-1.78 IS DISTORTING EXCESSIVELY.
   ELEMENT FINAL_PART-1.79 IS DISTORTING EXCESSIVELY.
   ELEMENT FINAL_PART-1.80 IS DISTORTING EXCESSIVELY.
   ELEMENT FINAL_PART-1.81 IS DISTORTING EXCESSIVELY.
   ELEMENT FINAL_PART-1.82 IS DISTORTING EXCESSIVELY.
   ELEMENT FINAL_PART-1.85 IS DISTORTING EXCESSIVELY.
   ELEMENT FINAL_PART-1.88 IS DISTORTING EXCESSIVELY.
   ELEMENT FINAL_PART-1.90 IS DISTORTING EXCESSIVELY.
   ELEMENT FINAL_PART-1.91 IS DISTORTING EXCESSIVELY.
   ELEMENT FINAL_PART-1.93 IS DISTORTING EXCESSIVELY.
   ELEMENT FINAL_PART-1.94 IS DISTORTING EXCESSIVELY.
   ELEMENT FINAL_PART-1.95 IS DISTORTING EXCESSIVELY.
   ELEMENT FINAL_PART-1.97 IS DISTORTING EXCESSIVELY.
   ELEMENT FINAL_PART-1.98 IS DISTORTING EXCESSIVELY.
   ELEMENT FINAL_PART-1.100 IS DISTORTING EXCESSIVELY.
   ELEMENT FINAL_PART-1.103 IS DISTORTING EXCESSIVELY.
   ELEMENT FINAL_PART-1.105 IS DISTORTING EXCESSIVELY.
   ELEMENT FINAL_PART-1.106 IS DISTORTING EXCESSIVELY.
   ELEMENT FINAL_PART-1.108 IS DISTORTING EXCESSIVELY.
   ELEMENT FINAL_PART-1.111 IS DISTORTING EXCESSIVELY.
   ELEMENT FINAL_PART-1.112 IS DISTORTING EXCESSIVELY.
   ELEMENT FINAL_PART-1.113 IS DISTORTING EXCESSIVELY.
   ELEMENT FINAL_PART-1.121 IS DISTORTING EXCESSIVELY.
   ELEMENT FINAL_PART-1.125 IS DISTORTING EXCESSIVELY.
   ELEMENT FINAL_PART-1.132 IS DISTORTING EXCESSIVELY.
   ELEMENT FINAL_PART-1.134 IS DISTORTING EXCESSIVELY.
   ELEMENT FINAL_PART-1.136 IS DISTORTING EXCESSIVELY.
   ELEMENT FINAL_PART-1.138 IS DISTORTING EXCESSIVELY.
   ELEMENT FINAL_PART-1.140 IS DISTORTING EXCESSIVELY.
   ELEMENT FINAL_PART-1.141 IS DISTORTING EXCESSIVELY.
   ELEMENT FINAL_PART-1.145 IS DISTORTING EXCESSIVELY.
   ELEMENT FINAL_PART-1.147 IS DISTORTING EXCESSIVELY.
   ELEMENT FINAL_PART-1.151 IS DISTORTING EXCESSIVELY.
   ELEMENT FINAL_PART-1.152 IS DISTORTING EXCESSIVELY.
   ELEMENT FINAL_PART-1.159 IS DISTORTING EXCESSIVELY.
   ELEMENT FINAL_PART-1.160 IS DISTORTING EXCESSIVELY.
   ELEMENT FINAL_PART-1.162 IS DISTORTING EXCESSIVELY.
   ELEMENT FINAL_PART-1.164 IS DISTORTING EXCESSIVELY.
   ELEMENT FINAL_PART-1.165 IS DISTORTING EXCESSIVELY.
   ELEMENT FINAL_PART-1.168 IS DISTORTING EXCESSIVELY.
   ELEMENT FINAL_PART-1.170 IS DISTORTING EXCESSIVELY.
   ELEMENT FINAL_PART-1.172 IS DISTORTING EXCESSIVELY.
   ELEMENT FINAL_PART-1.175 IS DISTORTING EXCESSIVELY.
   ELEMENT FINAL_PART-1.176 IS DISTORTING EXCESSIVELY.
   ELEMENT FINAL_PART-1.178 IS DISTORTING EXCESSIVELY.
   ELEMENT FINAL_PART-1.179 IS DISTORTING EXCESSIVELY.
   ELEMENT FINAL_PART-1.180 IS DISTORTING EXCESSIVELY.
   ELEMENT FINAL_PART-1.183 IS DISTORTING EXCESSIVELY.
   ELEMENT FINAL_PART-1.185 IS DISTORTING EXCESSIVELY.
   ELEMENT FINAL_PART-1.192 IS DISTORTING EXCESSIVELY.
   ELEMENT FINAL_PART-1.193 IS DISTORTING EXCESSIVELY.
   ELEMENT FINAL_PART-1.194 IS DISTORTING EXCESSIVELY.
   ELEMENT FINAL_PART-1.195 IS DISTORTING EXCESSIVELY.
   ELEMENT FINAL_PART-1.197 IS DISTORTING EXCESSIVELY.
   ELEMENT FINAL_PART-1.200 IS DISTORTING EXCESSIVELY.
   ELEMENT FINAL_PART-1.208 IS DISTORTING EXCESSIVELY.
   ELEMENT FINAL_PART-1.209 IS DISTORTING EXCESSIVELY.
   ELEMENT FINAL_PART-1.210 IS DISTORTING EXCESSIVELY.
   ELEMENT FINAL_PART-1.212 IS DISTORTING EXCESSIVELY.
   ELEMENT FINAL_PART-1.213 IS DISTORTING EXCESSIVELY.
   ELEMENT FINAL_PART-1.214 IS DISTORTING EXCESSIVELY.
   ELEMENT FINAL_PART-1.215 IS DISTORTING EXCESSIVELY.
   ELEMENT FINAL_PART-1.216 IS DISTORTING EXCESSIVELY.
   ELEMENT FINAL_PART-1.217 IS DISTORTING EXCESSIVELY.
   ELEMENT FINAL_PART-1.219 IS DISTORTING EXCESSIVELY.
   ELEMENT FINAL_PART-1.223 IS DISTORTING EXCESSIVELY.
   ELEMENT FINAL_PART-1.225 IS DISTORTING EXCESSIVELY.
   ELEMENT FINAL_PART-1.226 IS DISTORTING EXCESSIVELY.
   ELEMENT FINAL_PART-1.230 IS DISTORTING EXCESSIVELY.
   ELEMENT FINAL_PART-1.231 IS DISTORTING EXCESSIVELY.
   ELEMENT FINAL_PART-1.236 IS DISTORTING EXCESSIVELY.
   ELEMENT FINAL_PART-1.237 IS DISTORTING EXCESSIVELY.
   ELEMENT FINAL_PART-1.238 IS DISTORTING EXCESSIVELY.
   ELEMENT FINAL_PART-1.239 IS DISTORTING EXCESSIVELY.
   ELEMENT FINAL_PART-1.242 IS DISTORTING EXCESSIVELY.
   ELEMENT FINAL_PART-1.243 IS DISTORTING EXCESSIVELY.
   ELEMENT FINAL_PART-1.244 IS DISTORTING EXCESSIVELY.
   ELEMENT FINAL_PART-1.246 IS DISTORTING EXCESSIVELY.
   ELEMENT FINAL_PART-1.247 IS DISTORTING EXCESSIVELY.
   ELEMENT FINAL_PART-1.248 IS DISTORTING EXCESSIVELY.
   ELEMENT FINAL_PART-1.255 IS DISTORTING EXCESSIVELY.
   ELEMENT FINAL_PART-1.257 IS DISTORTING EXCESSIVELY.
   ELEMENT FINAL_PART-1.258 IS DISTORTING EXCESSIVELY.
   ELEMENT FINAL_PART-1.261 IS DISTORTING EXCESSIVELY.
   ELEMENT FINAL_PART-1.262 IS DISTORTING EXCESSIVELY.
   ELEMENT FINAL_PART-1.263 IS DISTORTING EXCESSIVELY.
   ELEMENT FINAL_PART-1.264 IS DISTORTING EXCESSIVELY.
   ELEMENT FINAL_PART-1.267 IS DISTORTING EXCESSIVELY.
   ELEMENT FINAL_PART-1.271 IS DISTORTING EXCESSIVELY.
   ELEMENT FINAL_PART-1.272 IS DISTORTING EXCESSIVELY.
   ELEMENT FINAL_PART-1.275 IS DISTORTING EXCESSIVELY.
   ELEMENT FINAL_PART-1.276 IS DISTORTING EXCESSIVELY.
   ELEMENT FINAL_PART-1.277 IS DISTORTING EXCESSIVELY.
   ELEMENT FINAL_PART-1.278 IS DISTORTING EXCESSIVELY.
   ELEMENT FINAL_PART-1.279 IS DISTORTING EXCESSIVELY.
   ELEMENT FINAL_PART-1.280 IS DISTORTING EXCESSIVELY.
   ELEMENT FINAL_PART-1.281 IS DISTORTING EXCESSIVELY.
   ELEMENT FINAL_PART-1.282 IS DISTORTING EXCESSIVELY.
   ELEMENT FINAL_PART-1.284 IS DISTORTING EXCESSIVELY.
   ELEMENT FINAL_PART-1.285 IS DISTORTING EXCESSIVELY.
   ELEMENT FINAL_PART-1.286 IS DISTORTING EXCESSIVELY.
   ELEMENT FINAL_PART-1.287 IS DISTORTING EXCESSIVELY.
   ELEMENT FINAL_PART-1.289 IS DISTORTING EXCESSIVELY.
   ELEMENT FINAL_PART-1.290 IS DISTORTING EXCESSIVELY.
   ELEMENT FINAL_PART-1.291 IS DISTORTING EXCESSIVELY.
   ELEMENT FINAL_PART-1.292 IS DISTORTING EXCESSIVELY.
   ELEMENT FINAL_PART-1.293 IS DISTORTING EXCESSIVELY.
   ELEMENT FINAL_PART-1.294 IS DISTORTING EXCESSIVELY.
   ELEMENT FINAL_PART-1.295 IS DISTORTING EXCESSIVELY.
   ELEMENT FINAL_PART-1.296 IS DISTORTING EXCESSIVELY.
   ELEMENT FINAL_PART-1.300 IS DISTORTING EXCESSIVELY.
   ELEMENT FINAL_PART-1.301 IS DISTORTING EXCESSIVELY.
   ELEMENT FINAL_PART-1.303 IS DISTORTING EXCESSIVELY.
   ELEMENT FINAL_PART-1.305 IS DISTORTING EXCESSIVELY.
   ELEMENT FINAL_PART-1.309 IS DISTORTING EXCESSIVELY.
   ELEMENT FINAL_PART-1.310 IS DISTORTING EXCESSIVELY.
   ELEMENT FINAL_PART-1.311 IS DISTORTING EXCESSIVELY.
   ELEMENT FINAL_PART-1.314 IS DISTORTING EXCESSIVELY.
   ELEMENT FINAL_PART-1.316 IS DISTORTING EXCESSIVELY.
   ELEMENT FINAL_PART-1.318 IS DISTORTING EXCESSIVELY.
   ELEMENT FINAL_PART-1.319 IS DISTORTING EXCESSIVELY.
   ELEMENT FINAL_PART-1.321 IS DISTORTING EXCESSIVELY.
   ELEMENT FINAL_PART-1.326 IS DISTORTING EXCESSIVELY.
   ELEMENT FINAL_PART-1.327 IS DISTORTING EXCESSIVELY.
   ELEMENT FINAL_PART-1.328 IS DISTORTING EXCESSIVELY.
   ELEMENT FINAL_PART-1.329 IS DISTORTING EXCESSIVELY.
   ELEMENT FINAL_PART-1.330 IS DISTORTING EXCESSIVELY.
   ELEMENT FINAL_PART-1.334 IS DISTORTING EXCESSIVELY.
   ELEMENT FINAL_PART-1.337 IS DISTORTING EXCESSIVELY.
   ELEMENT FINAL_PART-1.340 IS DISTORTING EXCESSIVELY.
   ELEMENT FINAL_PART-1.341 IS DISTORTING EXCESSIVELY.
   ELEMENT FINAL_PART-1.343 IS DISTORTING EXCESSIVELY.
   ELEMENT FINAL_PART-1.344 IS DISTORTING EXCESSIVELY.
   ELEMENT FINAL_PART-1.347 IS DISTORTING EXCESSIVELY.
   ELEMENT FINAL_PART-1.348 IS DISTORTING EXCESSIVELY.
   ELEMENT FINAL_PART-1.349 IS DISTORTING EXCESSIVELY.
   ELEMENT FINAL_PART-1.353 IS DISTORTING EXCESSIVELY.
   ELEMENT FINAL_PART-1.357 IS DISTORTING EXCESSIVELY.
   ELEMENT FINAL_PART-1.358 IS DISTORTING EXCESSIVELY.
   ELEMENT FINAL_PART-1.361 IS DISTORTING EXCESSIVELY.
   ELEMENT FINAL_PART-1.362 IS DISTORTING EXCESSIVELY.
   ELEMENT FINAL_PART-1.364 IS DISTORTING EXCESSIVELY.
   ELEMENT FINAL_PART-1.365 IS DISTORTING EXCESSIVELY.
   ELEMENT FINAL_PART-1.366 IS DISTORTING EXCESSIVELY.
   ELEMENT FINAL_PART-1.370 IS DISTORTING EXCESSIVELY.
   ELEMENT FINAL_PART-1.371 IS DISTORTING EXCESSIVELY.
   ELEMENT FINAL_PART-1.375 IS DISTORTING EXCESSIVELY.
   ELEMENT FINAL_PART-1.376 IS DISTORTING EXCESSIVELY.
   ELEMENT FINAL_PART-1.380 IS DISTORTING EXCESSIVELY.
   ELEMENT FINAL_PART-1.381 IS DISTORTING EXCESSIVELY.
   ELEMENT FINAL_PART-1.385 IS DISTORTING EXCESSIVELY.
   ELEMENT FINAL_PART-1.388 IS DISTORTING EXCESSIVELY.
   ELEMENT FINAL_PART-1.398 IS DISTORTING EXCESSIVELY.
   ELEMENT FINAL_PART-1.400 IS DISTORTING EXCESSIVELY.
   ELEMENT FINAL_PART-1.401 IS DISTORTING EXCESSIVELY.
   ELEMENT FINAL_PART-1.402 IS DISTORTING EXCESSIVELY.
   ELEMENT FINAL_PART-1.403 IS DISTORTING EXCESSIVELY.
   ELEMENT FINAL_PART-1.404 IS DISTORTING EXCESSIVELY.
   ELEMENT FINAL_PART-1.405 IS DISTORTING EXCESSIVELY.
   ELEMENT FINAL_PART-1.407 IS DISTORTING EXCESSIVELY.
   ELEMENT FINAL_PART-1.408 IS DISTORTING EXCESSIVELY.
   ELEMENT FINAL_PART-1.411 IS DISTORTING EXCESSIVELY.
   ELEMENT FINAL_PART-1.414 IS DISTORTING EXCESSIVELY.
   ELEMENT FINAL_PART-1.415 IS DISTORTING EXCESSIVELY.
   ELEMENT FINAL_PART-1.416 IS DISTORTING EXCESSIVELY.
   ELEMENT FINAL_PART-1.419 IS DISTORTING EXCESSIVELY.
   ELEMENT FINAL_PART-1.420 IS DISTORTING EXCESSIVELY.
   ELEMENT FINAL_PART-1.421 IS DISTORTING EXCESSIVELY.
   ELEMENT FINAL_PART-1.422 IS DISTORTING EXCESSIVELY.
   ELEMENT FINAL_PART-1.423 IS DISTORTING EXCESSIVELY.
   ELEMENT FINAL_PART-1.424 IS DISTORTING EXCESSIVELY.
   ELEMENT FINAL_PART-1.425 IS DISTORTING EXCESSIVELY.
   ELEMENT FINAL_PART-1.426 IS DISTORTING EXCESSIVELY.
   ELEMENT FINAL_PART-1.428 IS DISTORTING EXCESSIVELY.
   ELEMENT FINAL_PART-1.429 IS DISTORTING EXCESSIVELY.
   ELEMENT FINAL_PART-1.430 IS DISTORTING EXCESSIVELY.
   ELEMENT FINAL_PART-1.431 IS DISTORTING EXCESSIVELY.
   ELEMENT FINAL_PART-1.432 IS DISTORTING EXCESSIVELY.
   ELEMENT FINAL_PART-1.433 IS DISTORTING EXCESSIVELY.
   ELEMENT FINAL_PART-1.434 IS DISTORTING EXCESSIVELY.
   ELEMENT FINAL_PART-1.435 IS DISTORTING EXCESSIVELY.
   ELEMENT FINAL_PART-1.437 IS DISTORTING EXCESSIVELY.
   ELEMENT FINAL_PART-1.438 IS DISTORTING EXCESSIVELY.
   ELEMENT FINAL_PART-1.439 IS DISTORTING EXCESSIVELY.
   ELEMENT FINAL_PART-1.440 IS DISTORTING EXCESSIVELY.
   ELEMENT FINAL_PART-1.442 IS DISTORTING EXCESSIVELY.
   ELEMENT FINAL_PART-1.443 IS DISTORTING EXCESSIVELY.
   ELEMENT FINAL_PART-1.444 IS DISTORTING EXCESSIVELY.
   ELEMENT FINAL_PART-1.445 IS DISTORTING EXCESSIVELY.
   ELEMENT FINAL_PART-1.446 IS DISTORTING EXCESSIVELY.
   ELEMENT FINAL_PART-1.452 IS DISTORTING EXCESSIVELY.
   ELEMENT FINAL_PART-1.454 IS DISTORTING EXCESSIVELY.
   ELEMENT FINAL_PART-1.456 IS DISTORTING EXCESSIVELY.
   ELEMENT FINAL_PART-1.457 IS DISTORTING EXCESSIVELY.
   ELEMENT FINAL_PART-1.458 IS DISTORTING EXCESSIVELY.
   ELEMENT FINAL_PART-1.459 IS DISTORTING EXCESSIVELY.
   ELEMENT FINAL_PART-1.462 IS DISTORTING EXCESSIVELY.
   ELEMENT FINAL_PART-1.463 IS DISTORTING EXCESSIVELY.
   ELEMENT FINAL_PART-1.465 IS DISTORTING EXCESSIVELY.
   ELEMENT FINAL_PART-1.466 IS DISTORTING EXCESSIVELY.
   ELEMENT FINAL_PART-1.467 IS DISTORTING EXCESSIVELY.
   ELEMENT FINAL_PART-1.469 IS DISTORTING EXCESSIVELY.
   ELEMENT FINAL_PART-1.470 IS DISTORTING EXCESSIVELY.
   ELEMENT FINAL_PART-1.471 IS DISTORTING EXCESSIVELY.
   ELEMENT FINAL_PART-1.473 IS DISTORTING EXCESSIVELY.
   ELEMENT FINAL_PART-1.476 IS DISTORTING EXCESSIVELY.
   ELEMENT FINAL_PART-1.477 IS DISTORTING EXCESSIVELY.
   ELEMENT FINAL_PART-1.479 IS DISTORTING EXCESSIVELY.
   ELEMENT FINAL_PART-1.480 IS DISTORTING EXCESSIVELY.
   ELEMENT FINAL_PART-1.481 IS DISTORTING EXCESSIVELY.
   ELEMENT FINAL_PART-1.483 IS DISTORTING EXCESSIVELY.
   ELEMENT FINAL_PART-1.487 IS DISTORTING EXCESSIVELY.
   ELEMENT FINAL_PART-1.488 IS DISTORTING EXCESSIVELY.
   ELEMENT FINAL_PART-1.493 IS DISTORTING EXCESSIVELY.
   ELEMENT FINAL_PART-1.494 IS DISTORTING EXCESSIVELY.
   ELEMENT FINAL_PART-1.496 IS DISTORTING EXCESSIVELY.
   ELEMENT FINAL_PART-1.497 IS DISTORTING EXCESSIVELY.
   ELEMENT FINAL_PART-1.498 IS DISTORTING EXCESSIVELY.
   ELEMENT FINAL_PART-1.499 IS DISTORTING EXCESSIVELY.
   ELEMENT FINAL_PART-1.500 IS DISTORTING EXCESSIVELY.
   ELEMENT FINAL_PART-1.502 IS DISTORTING EXCESSIVELY.
   ELEMENT FINAL_PART-1.504 IS DISTORTING EXCESSIVELY.
   ELEMENT FINAL_PART-1.506 IS DISTORTING EXCESSIVELY.
   ELEMENT FINAL_PART-1.508 IS DISTORTING EXCESSIVELY.
   ELEMENT FINAL_PART-1.509 IS DISTORTING EXCESSIVELY.
   ELEMENT FINAL_PART-1.510 IS DISTORTING EXCESSIVELY.
   ELEMENT FINAL_PART-1.511 IS DISTORTING EXCESSIVELY.
   ELEMENT FINAL_PART-1.512 IS DISTORTING EXCESSIVELY.
   ELEMENT FINAL_PART-1.517 IS DISTORTING EXCESSIVELY.
   ELEMENT FINAL_PART-1.520 IS DISTORTING EXCESSIVELY.
   ELEMENT FINAL_PART-1.523 IS DISTORTING EXCESSIVELY.
   ELEMENT FINAL_PART-1.525 IS DISTORTING EXCESSIVELY.
   ELEMENT FINAL_PART-1.526 IS DISTORTING EXCESSIVELY.
   ELEMENT FINAL_PART-1.527 IS DISTORTING EXCESSIVELY.
   ELEMENT FINAL_PART-1.528 IS DISTORTING EXCESSIVELY.
   ELEMENT FINAL_PART-1.530 IS DISTORTING EXCESSIVELY.
   ELEMENT FINAL_PART-1.531 IS DISTORTING EXCESSIVELY.
   ELEMENT FINAL_PART-1.534 IS DISTORTING EXCESSIVELY.
   ELEMENT FINAL_PART-1.535 IS DISTORTING EXCESSIVELY.
   ELEMENT FINAL_PART-1.539 IS DISTORTING EXCESSIVELY.
   ELEMENT FINAL_PART-1.543 IS DISTORTING EXCESSIVELY.
   ELEMENT FINAL_PART-1.544 IS DISTORTING EXCESSIVELY.
   ELEMENT FINAL_PART-1.546 IS DISTORTING EXCESSIVELY.
   ELEMENT FINAL_PART-1.547 IS DISTORTING EXCESSIVELY.
   ELEMENT FINAL_PART-1.548 IS DISTORTING EXCESSIVELY.
   ELEMENT FINAL_PART-1.549 IS DISTORTING EXCESSIVELY.
   ELEMENT FINAL_PART-1.550 IS DISTORTING EXCESSIVELY.
   ELEMENT FINAL_PART-1.553 IS DISTORTING EXCESSIVELY.
   ELEMENT FINAL_PART-1.554 IS DISTORTING EXCESSIVELY.
   ELEMENT FINAL_PART-1.556 IS DISTORTING EXCESSIVELY.
   ELEMENT FINAL_PART-1.558 IS DISTORTING EXCESSIVELY.
   ELEMENT FINAL_PART-1.559 IS DISTORTING EXCESSIVELY.
   ELEMENT FINAL_PART-1.563 IS DISTORTING EXCESSIVELY.
   ELEMENT FINAL_PART-1.565 IS DISTORTING EXCESSIVELY.
   ELEMENT FINAL_PART-1.567 IS DISTORTING EXCESSIVELY.
   ELEMENT FINAL_PART-1.568 IS DISTORTING EXCESSIVELY.
   ELEMENT FINAL_PART-1.569 IS DISTORTING EXCESSIVELY.
   ELEMENT FINAL_PART-1.572 IS DISTORTING EXCESSIVELY.
   ELEMENT FINAL_PART-1.573 IS DISTORTING EXCESSIVELY.
   ELEMENT FINAL_PART-1.580 IS DISTORTING EXCESSIVELY.
   ELEMENT FINAL_PART-1.582 IS DISTORTING EXCESSIVELY.
   ELEMENT FINAL_PART-1.584 IS DISTORTING EXCESSIVELY.
   ELEMENT FINAL_PART-1.585 IS DISTORTING EXCESSIVELY.
   ELEMENT FINAL_PART-1.587 IS DISTORTING EXCESSIVELY.
   ELEMENT FINAL_PART-1.588 IS DISTORTING EXCESSIVELY.
   ELEMENT FINAL_PART-1.589 IS DISTORTING EXCESSIVELY.
   ELEMENT FINAL_PART-1.591 IS DISTORTING EXCESSIVELY.
   ELEMENT FINAL_PART-1.592 IS DISTORTING EXCESSIVELY.
   ELEMENT FINAL_PART-1.593 IS DISTORTING EXCESSIVELY.
   ELEMENT FINAL_PART-1.594 IS DISTORTING EXCESSIVELY.
   ELEMENT FINAL_PART-1.596 IS DISTORTING EXCESSIVELY.
   ELEMENT FINAL_PART-1.597 IS DISTORTING EXCESSIVELY.
   ELEMENT FINAL_PART-1.598 IS DISTORTING EXCESSIVELY.
   ELEMENT FINAL_PART-1.603 IS DISTORTING EXCESSIVELY.
   ELEMENT FINAL_PART-1.606 IS DISTORTING EXCESSIVELY.
   ELEMENT FINAL_PART-1.608 IS DISTORTING EXCESSIVELY.
   ELEMENT FINAL_PART-1.609 IS DISTORTING EXCESSIVELY.
   ELEMENT FINAL_PART-1.612 IS DISTORTING EXCESSIVELY.
   ELEMENT FINAL_PART-1.614 IS DISTORTING EXCESSIVELY.
   ELEMENT FINAL_PART-1.616 IS DISTORTING EXCESSIVELY.
   ELEMENT FINAL_PART-1.617 IS DISTORTING EXCESSIVELY.
   ELEMENT FINAL_PART-1.619 IS DISTORTING EXCESSIVELY.
   ELEMENT FINAL_PART-1.620 IS DISTORTING EXCESSIVELY.
   ELEMENT FINAL_PART-1.623 IS DISTORTING EXCESSIVELY.
   ELEMENT FINAL_PART-1.624 IS DISTORTING EXCESSIVELY.
   ELEMENT FINAL_PART-1.625 IS DISTORTING EXCESSIVELY.
   ELEMENT FINAL_PART-1.628 IS DISTORTING EXCESSIVELY.
   ELEMENT FINAL_PART-1.629 IS DISTORTING EXCESSIVELY.
   ELEMENT FINAL_PART-1.632 IS DISTORTING EXCESSIVELY.
   ELEMENT FINAL_PART-1.634 IS DISTORTING EXCESSIVELY.
   ELEMENT FINAL_PART-1.636 IS DISTORTING EXCESSIVELY.
   ELEMENT FINAL_PART-1.637 IS DISTORTING EXCESSIVELY.
   ELEMENT FINAL_PART-1.638 IS DISTORTING EXCESSIVELY.
   ELEMENT FINAL_PART-1.639 IS DISTORTING EXCESSIVELY.
   ELEMENT FINAL_PART-1.640 IS DISTORTING EXCESSIVELY.
   ELEMENT FINAL_PART-1.641 IS DISTORTING EXCESSIVELY.
   ELEMENT FINAL_PART-1.642 IS DISTORTING EXCESSIVELY.
   ELEMENT FINAL_PART-1.645 IS DISTORTING EXCESSIVELY.
   ELEMENT FINAL_PART-1.649 IS DISTORTING EXCESSIVELY.
   ELEMENT FINAL_PART-1.652 IS DISTORTING EXCESSIVELY.
   ELEMENT FINAL_PART-1.654 IS DISTORTING EXCESSIVELY.
   ELEMENT FINAL_PART-1.655 IS DISTORTING EXCESSIVELY.
   ELEMENT FINAL_PART-1.656 IS DISTORTING EXCESSIVELY.
   ELEMENT FINAL_PART-1.658 IS DISTORTING EXCESSIVELY.
   ELEMENT FINAL_PART-1.659 IS DISTORTING EXCESSIVELY.
   ELEMENT FINAL_PART-1.661 IS DISTORTING EXCESSIVELY.
   ELEMENT FINAL_PART-1.665 IS DISTORTING EXCESSIVELY.
   ELEMENT FINAL_PART-1.670 IS DISTORTING EXCESSIVELY.
   ELEMENT FINAL_PART-1.671 IS DISTORTING EXCESSIVELY.
   ELEMENT FINAL_PART-1.673 IS DISTORTING EXCESSIVELY.
   ELEMENT FINAL_PART-1.675 IS DISTORTING EXCESSIVELY.
   ELEMENT FINAL_PART-1.679 IS DISTORTING EXCESSIVELY.
   ELEMENT FINAL_PART-1.680 IS DISTORTING EXCESSIVELY.
   ELEMENT FINAL_PART-1.681 IS DISTORTING EXCESSIVELY.
   ELEMENT FINAL_PART-1.683 IS DISTORTING EXCESSIVELY.
   ELEMENT FINAL_PART-1.686 IS DISTORTING EXCESSIVELY.
   ELEMENT FINAL_PART-1.687 IS DISTORTING EXCESSIVELY.
   ELEMENT FINAL_PART-1.689 IS DISTORTING EXCESSIVELY.
   ELEMENT FINAL_PART-1.690 IS DISTORTING EXCESSIVELY.
   ELEMENT FINAL_PART-1.691 IS DISTORTING EXCESSIVELY.
   ELEMENT FINAL_PART-1.693 IS DISTORTING EXCESSIVELY.
   ELEMENT FINAL_PART-1.694 IS DISTORTING EXCESSIVELY.
   ELEMENT FINAL_PART-1.696 IS DISTORTING EXCESSIVELY.
   ELEMENT FINAL_PART-1.697 IS DISTORTING EXCESSIVELY.
   ELEMENT FINAL_PART-1.699 IS DISTORTING EXCESSIVELY.
   ELEMENT FINAL_PART-1.703 IS DISTORTING EXCESSIVELY.
   ELEMENT FINAL_PART-1.705 IS DISTORTING EXCESSIVELY.
   ELEMENT FINAL_PART-1.709 IS DISTORTING EXCESSIVELY.
   ELEMENT FINAL_PART-1.713 IS DISTORTING EXCESSIVELY.
   ELEMENT FINAL_PART-1.720 IS DISTORTING EXCESSIVELY.
   ELEMENT FINAL_PART-1.722 IS DISTORTING EXCESSIVELY.
   ELEMENT FINAL_PART-1.723 IS DISTORTING EXCESSIVELY.
   ELEMENT FINAL_PART-1.724 IS DISTORTING EXCESSIVELY.
   ELEMENT FINAL_PART-1.726 IS DISTORTING EXCESSIVELY.
   ELEMENT FINAL_PART-1.728 IS DISTORTING EXCESSIVELY.
   ELEMENT FINAL_PART-1.731 IS DISTORTING EXCESSIVELY.
   ELEMENT FINAL_PART-1.732 IS DISTORTING EXCESSIVELY.
   ELEMENT FINAL_PART-1.734 IS DISTORTING EXCESSIVELY.
   ELEMENT FINAL_PART-1.737 IS DISTORTING EXCESSIVELY.
   ELEMENT FINAL_PART-1.740 IS DISTORTING EXCESSIVELY.
   ELEMENT FINAL_PART-1.741 IS DISTORTING EXCESSIVELY.
   ELEMENT FINAL_PART-1.743 IS DISTORTING EXCESSIVELY.
   ELEMENT FINAL_PART-1.745 IS DISTORTING EXCESSIVELY.
   ELEMENT FINAL_PART-1.751 IS DISTORTING EXCESSIVELY.
   ELEMENT FINAL_PART-1.752 IS DISTORTING EXCESSIVELY.
   ELEMENT FINAL_PART-1.753 IS DISTORTING EXCESSIVELY.
   ELEMENT FINAL_PART-1.755 IS DISTORTING EXCESSIVELY.
   ELEMENT FINAL_PART-1.756 IS DISTORTING EXCESSIVELY.
   ELEMENT FINAL_PART-1.759 IS DISTORTING EXCESSIVELY.
   ELEMENT FINAL_PART-1.761 IS DISTORTING EXCESSIVELY.
   ELEMENT FINAL_PART-1.770 IS DISTORTING EXCESSIVELY.
   ELEMENT FINAL_PART-1.771 IS DISTORTING EXCESSIVELY.
   ELEMENT FINAL_PART-1.773 IS DISTORTING EXCESSIVELY.
   ELEMENT FINAL_PART-1.775 IS DISTORTING EXCESSIVELY.
   ELEMENT FINAL_PART-1.778 IS DISTORTING EXCESSIVELY.
   ELEMENT FINAL_PART-1.779 IS DISTORTING EXCESSIVELY.
   ELEMENT FINAL_PART-1.780 IS DISTORTING EXCESSIVELY.
   ELEMENT FINAL_PART-1.781 IS DISTORTING EXCESSIVELY.
   ELEMENT FINAL_PART-1.782 IS DISTORTING EXCESSIVELY.
   ELEMENT FINAL_PART-1.784 IS DISTORTING EXCESSIVELY.
   ELEMENT FINAL_PART-1.785 IS DISTORTING EXCESSIVELY.
   ELEMENT FINAL_PART-1.787 IS DISTORTING EXCESSIVELY.
   ELEMENT FINAL_PART-1.788 IS DISTORTING EXCESSIVELY.
   ELEMENT FINAL_PART-1.789 IS DISTORTING EXCESSIVELY.
   ELEMENT FINAL_PART-1.791 IS DISTORTING EXCESSIVELY.
   ELEMENT FINAL_PART-1.792 IS DISTORTING EXCESSIVELY.
   ELEMENT FINAL_PART-1.793 IS DISTORTING EXCESSIVELY.
   ELEMENT FINAL_PART-1.794 IS DISTORTING EXCESSIVELY.
   ELEMENT FINAL_PART-1.796 IS DISTORTING EXCESSIVELY.
   ELEMENT FINAL_PART-1.798 IS DISTORTING EXCESSIVELY.
   ELEMENT FINAL_PART-1.799 IS DISTORTING EXCESSIVELY.
   ELEMENT FINAL_PART-1.801 IS DISTORTING EXCESSIVELY.
   ELEMENT FINAL_PART-1.802 IS DISTORTING EXCESSIVELY.
   ELEMENT FINAL_PART-1.803 IS DISTORTING EXCESSIVELY.
   ELEMENT FINAL_PART-1.805 IS DISTORTING EXCESSIVELY.
   ELEMENT FINAL_PART-1.806 IS DISTORTING EXCESSIVELY.
   ELEMENT FINAL_PART-1.807 IS DISTORTING EXCESSIVELY.
   ELEMENT FINAL_PART-1.809 IS DISTORTING EXCESSIVELY.
   ELEMENT FINAL_PART-1.811 IS DISTORTING EXCESSIVELY.
   ELEMENT FINAL_PART-1.812 IS DISTORTING EXCESSIVELY.
   ELEMENT FINAL_PART-1.813 IS DISTORTING EXCESSIVELY.
   ELEMENT FINAL_PART-1.816 IS DISTORTING EXCESSIVELY.
   ELEMENT FINAL_PART-1.817 IS DISTORTING EXCESSIVELY.
   ELEMENT FINAL_PART-1.819 IS DISTORTING EXCESSIVELY.
   ELEMENT FINAL_PART-1.820 IS DISTORTING EXCESSIVELY.
   ELEMENT FINAL_PART-1.823 IS DISTORTING EXCESSIVELY.
   ELEMENT FINAL_PART-1.825 IS DISTORTING EXCESSIVELY.
   ELEMENT FINAL_PART-1.827 IS DISTORTING EXCESSIVELY.
   ELEMENT FINAL_PART-1.828 IS DISTORTING EXCESSIVELY.
   ELEMENT FINAL_PART-1.829 IS DISTORTING EXCESSIVELY.
   ELEMENT FINAL_PART-1.830 IS DISTORTING EXCESSIVELY.
   ELEMENT FINAL_PART-1.837 IS DISTORTING EXCESSIVELY.
   ELEMENT FINAL_PART-1.842 IS DISTORTING EXCESSIVELY.
   ELEMENT FINAL_PART-1.843 IS DISTORTING EXCESSIVELY.
   ELEMENT FINAL_PART-1.846 IS DISTORTING EXCESSIVELY.
   ELEMENT FINAL_PART-1.847 IS DISTORTING EXCESSIVELY.
   ELEMENT FINAL_PART-1.853 IS DISTORTING EXCESSIVELY.
   ELEMENT FINAL_PART-1.856 IS DISTORTING EXCESSIVELY.
   ELEMENT FINAL_PART-1.858 IS DISTORTING EXCESSIVELY.
   ELEMENT FINAL_PART-1.863 IS DISTORTING EXCESSIVELY.
   ELEMENT FINAL_PART-1.864 IS DISTORTING EXCESSIVELY.
   ELEMENT FINAL_PART-1.868 IS DISTORTING EXCESSIVELY.
   ELEMENT FINAL_PART-1.870 IS DISTORTING EXCESSIVELY.
   ELEMENT FINAL_PART-1.876 IS DISTORTING EXCESSIVELY.
   ELEMENT FINAL_PART-1.877 IS DISTORTING EXCESSIVELY.
   ELEMENT FINAL_PART-1.881 IS DISTORTING EXCESSIVELY.
   ELEMENT FINAL_PART-1.882 IS DISTORTING EXCESSIVELY.
   ELEMENT FINAL_PART-1.883 IS DISTORTING EXCESSIVELY.
   ELEMENT FINAL_PART-1.884 IS DISTORTING EXCESSIVELY.
   ELEMENT FINAL_PART-1.888 IS DISTORTING EXCESSIVELY.
   ELEMENT FINAL_PART-1.889 IS DISTORTING EXCESSIVELY.
   ELEMENT FINAL_PART-1.896 IS DISTORTING EXCESSIVELY.
   ELEMENT FINAL_PART-1.897 IS DISTORTING EXCESSIVELY.
   ELEMENT FINAL_PART-1.900 IS DISTORTING EXCESSIVELY.
   ELEMENT FINAL_PART-1.901 IS DISTORTING EXCESSIVELY.
   ELEMENT FINAL_PART-1.902 IS DISTORTING EXCESSIVELY.
   ELEMENT FINAL_PART-1.905 IS DISTORTING EXCESSIVELY.
   ELEMENT FINAL_PART-1.907 IS DISTORTING EXCESSIVELY.
   ELEMENT FINAL_PART-1.908 IS DISTORTING EXCESSIVELY.
   ELEMENT FINAL_PART-1.909 IS DISTORTING EXCESSIVELY.
   ELEMENT FINAL_PART-1.912 IS DISTORTING EXCESSIVELY.
   ELEMENT FINAL_PART-1.913 IS DISTORTING EXCESSIVELY.
   ELEMENT FINAL_PART-1.918 IS DISTORTING EXCESSIVELY.
   ELEMENT FINAL_PART-1.921 IS DISTORTING EXCESSIVELY.
   ELEMENT FINAL_PART-1.922 IS DISTORTING EXCESSIVELY.
   ELEMENT FINAL_PART-1.924 IS DISTORTING EXCESSIVELY.
   ELEMENT FINAL_PART-1.925 IS DISTORTING EXCESSIVELY.
   ELEMENT FINAL_PART-1.928 IS DISTORTING EXCESSIVELY.
   ELEMENT FINAL_PART-1.929 IS DISTORTING EXCESSIVELY.
   ELEMENT FINAL_PART-1.931 IS DISTORTING EXCESSIVELY.
   ELEMENT FINAL_PART-1.932 IS DISTORTING EXCESSIVELY.
   ELEMENT FINAL_PART-1.933 IS DISTORTING EXCESSIVELY.
   ELEMENT FINAL_PART-1.934 IS DISTORTING EXCESSIVELY.
   ELEMENT FINAL_PART-1.936 IS DISTORTING EXCESSIVELY.
   ELEMENT FINAL_PART-1.939 IS DISTORTING EXCESSIVELY.
   ELEMENT FINAL_PART-1.942 IS DISTORTING EXCESSIVELY.
   ELEMENT FINAL_PART-1.943 IS DISTORTING EXCESSIVELY.
   ELEMENT FINAL_PART-1.945 IS DISTORTING EXCESSIVELY.
   ELEMENT FINAL_PART-1.946 IS DISTORTING EXCESSIVELY.
   ELEMENT FINAL_PART-1.947 IS DISTORTING EXCESSIVELY.
   ELEMENT FINAL_PART-1.949 IS DISTORTING EXCESSIVELY.
   ELEMENT FINAL_PART-1.950 IS DISTORTING EXCESSIVELY.
   ELEMENT FINAL_PART-1.951 IS DISTORTING EXCESSIVELY.
   ELEMENT FINAL_PART-1.954 IS DISTORTING EXCESSIVELY.
   ELEMENT FINAL_PART-1.959 IS DISTORTING EXCESSIVELY.
   ELEMENT FINAL_PART-1.961 IS DISTORTING EXCESSIVELY.
   ELEMENT FINAL_PART-1.964 IS DISTORTING EXCESSIVELY.
   ELEMENT FINAL_PART-1.965 IS DISTORTING EXCESSIVELY.
   ELEMENT FINAL_PART-1.966 IS DISTORTING EXCESSIVELY.
   ELEMENT FINAL_PART-1.968 IS DISTORTING EXCESSIVELY.
   ELEMENT FINAL_PART-1.969 IS DISTORTING EXCESSIVELY.
   ELEMENT FINAL_PART-1.973 IS DISTORTING EXCESSIVELY.
   ELEMENT FINAL_PART-1.974 IS DISTORTING EXCESSIVELY.
   ELEMENT FINAL_PART-1.975 IS DISTORTING EXCESSIVELY.
   ELEMENT FINAL_PART-1.976 IS DISTORTING EXCESSIVELY.
   ELEMENT FINAL_PART-1.983 IS DISTORTING EXCESSIVELY.
   ELEMENT FINAL_PART-1.984 IS DISTORTING EXCESSIVELY.
   ELEMENT FINAL_PART-1.986 IS DISTORTING EXCESSIVELY.
   ELEMENT FINAL_PART-1.989 IS DISTORTING EXCESSIVELY.
   ELEMENT FINAL_PART-1.991 IS DISTORTING EXCESSIVELY.
   ELEMENT FINAL_PART-1.993 IS DISTORTING EXCESSIVELY.
   ELEMENT FINAL_PART-1.995 IS DISTORTING EXCESSIVELY.
   ELEMENT FINAL_PART-1.999 IS DISTORTING EXCESSIVELY.
   ELEMENT FINAL_PART-1.1002 IS DISTORTING EXCESSIVELY.
   ELEMENT FINAL_PART-1.1003 IS DISTORTING EXCESSIVELY.
   ELEMENT FINAL_PART-1.1004 IS DISTORTING EXCESSIVELY.
   ELEMENT FINAL_PART-1.1005 IS DISTORTING EXCESSIVELY.
   ELEMENT FINAL_PART-1.1007 IS DISTORTING EXCESSIVELY.
   ELEMENT FINAL_PART-1.1009 IS DISTORTING EXCESSIVELY.
   ELEMENT FINAL_PART-1.1010 IS DISTORTING EXCESSIVELY.
   ELEMENT FINAL_PART-1.1012 IS DISTORTING EXCESSIVELY.
   ELEMENT FINAL_PART-1.1013 IS DISTORTING EXCESSIVELY.
   ELEMENT FINAL_PART-1.1014 IS DISTORTING EXCESSIVELY.
   ELEMENT FINAL_PART-1.1015 IS DISTORTING EXCESSIVELY.
   ELEMENT FINAL_PART-1.1017 IS DISTORTING EXCESSIVELY.
   ELEMENT FINAL_PART-1.1019 IS DISTORTING EXCESSIVELY.
   ELEMENT FINAL_PART-1.1022 IS DISTORTING EXCESSIVELY.
   ELEMENT FINAL_PART-1.1026 IS DISTORTING EXCESSIVELY.
   ELEMENT FINAL_PART-1.1027 IS DISTORTING EXCESSIVELY.
   ELEMENT FINAL_PART-1.1029 IS DISTORTING EXCESSIVELY.
   ELEMENT FINAL_PART-1.1031 IS DISTORTING EXCESSIVELY.
   ELEMENT FINAL_PART-1.1033 IS DISTORTING EXCESSIVELY.
   ELEMENT FINAL_PART-1.1035 IS DISTORTING EXCESSIVELY.
   ELEMENT FINAL_PART-1.1036 IS DISTORTING EXCESSIVELY.
   ELEMENT FINAL_PART-1.1039 IS DISTORTING EXCESSIVELY.
   ELEMENT FINAL_PART-1.1040 IS DISTORTING EXCESSIVELY.
   ELEMENT FINAL_PART-1.1042 IS DISTORTING EXCESSIVELY.
   ELEMENT FINAL_PART-1.1043 IS DISTORTING EXCESSIVELY.
   ELEMENT FINAL_PART-1.1047 IS DISTORTING EXCESSIVELY.
   ELEMENT FINAL_PART-1.1049 IS DISTORTING EXCESSIVELY.
   ELEMENT FINAL_PART-1.1050 IS DISTORTING EXCESSIVELY.
   ELEMENT FINAL_PART-1.1052 IS DISTORTING EXCESSIVELY.
   ELEMENT FINAL_PART-1.1053 IS DISTORTING EXCESSIVELY.
   ELEMENT FINAL_PART-1.1054 IS DISTORTING EXCESSIVELY.
   ELEMENT FINAL_PART-1.1056 IS DISTORTING EXCESSIVELY.
   ELEMENT FINAL_PART-1.1058 IS DISTORTING EXCESSIVELY.
   ELEMENT FINAL_PART-1.1066 IS DISTORTING EXCESSIVELY.
   ELEMENT FINAL_PART-1.1067 IS DISTORTING EXCESSIVELY.
   ELEMENT FINAL_PART-1.1070 IS DISTORTING EXCESSIVELY.
   ELEMENT FINAL_PART-1.1073 IS DISTORTING EXCESSIVELY.
   ELEMENT FINAL_PART-1.1075 IS DISTORTING EXCESSIVELY.
   ELEMENT FINAL_PART-1.1077 IS DISTORTING EXCESSIVELY.
   ELEMENT FINAL_PART-1.1081 IS DISTORTING EXCESSIVELY.
   ELEMENT FINAL_PART-1.1086 IS DISTORTING EXCESSIVELY.
   ELEMENT FINAL_PART-1.1088 IS DISTORTING EXCESSIVELY.
   ELEMENT FINAL_PART-1.1090 IS DISTORTING EXCESSIVELY.
   ELEMENT FINAL_PART-1.1094 IS DISTORTING EXCESSIVELY.
   ELEMENT FINAL_PART-1.1097 IS DISTORTING EXCESSIVELY.
   ELEMENT FINAL_PART-1.1098 IS DISTORTING EXCESSIVELY.
   ELEMENT FINAL_PART-1.1100 IS DISTORTING EXCESSIVELY.
   ELEMENT FINAL_PART-1.1101 IS DISTORTING EXCESSIVELY.
   ELEMENT FINAL_PART-1.1104 IS DISTORTING EXCESSIVELY.
   ELEMENT FINAL_PART-1.1108 IS DISTORTING EXCESSIVELY.
   ELEMENT FINAL_PART-1.1109 IS DISTORTING EXCESSIVELY.
   ELEMENT FINAL_PART-1.1113 IS DISTORTING EXCESSIVELY.
   ELEMENT FINAL_PART-1.1117 IS DISTORTING EXCESSIVELY.
   ELEMENT FINAL_PART-1.1118 IS DISTORTING EXCESSIVELY.
   ELEMENT FINAL_PART-1.1122 IS DISTORTING EXCESSIVELY.
   ELEMENT FINAL_PART-1.1123 IS DISTORTING EXCESSIVELY.
   ELEMENT FINAL_PART-1.1124 IS DISTORTING EXCESSIVELY.
   ELEMENT FINAL_PART-1.1125 IS DISTORTING EXCESSIVELY.
   ELEMENT FINAL_PART-1.1126 IS DISTORTING EXCESSIVELY.
   ELEMENT FINAL_PART-1.1127 IS DISTORTING EXCESSIVELY.
   ELEMENT FINAL_PART-1.1129 IS DISTORTING EXCESSIVELY.
   ELEMENT FINAL_PART-1.1132 IS DISTORTING EXCESSIVELY.
   ELEMENT FINAL_PART-1.1133 IS DISTORTING EXCESSIVELY.
   ELEMENT FINAL_PART-1.1135 IS DISTORTING EXCESSIVELY.
   ELEMENT FINAL_PART-1.1136 IS DISTORTING EXCESSIVELY.
   ELEMENT FINAL_PART-1.1138 IS DISTORTING EXCESSIVELY.
   ELEMENT FINAL_PART-1.1139 IS DISTORTING EXCESSIVELY.
   ELEMENT FINAL_PART-1.1144 IS DISTORTING EXCESSIVELY.
   ELEMENT FINAL_PART-1.1145 IS DISTORTING EXCESSIVELY.
   ELEMENT FINAL_PART-1.1150 IS DISTORTING EXCESSIVELY.
   ELEMENT FINAL_PART-1.1151 IS DISTORTING EXCESSIVELY.
   ELEMENT FINAL_PART-1.1152 IS DISTORTING EXCESSIVELY.
   ELEMENT FINAL_PART-1.1154 IS DISTORTING EXCESSIVELY.
   ELEMENT FINAL_PART-1.1157 IS DISTORTING EXCESSIVELY.
   ELEMENT FINAL_PART-1.1158 IS DISTORTING EXCESSIVELY.
   ELEMENT FINAL_PART-1.1161 IS DISTORTING EXCESSIVELY.
   ELEMENT FINAL_PART-1.1166 IS DISTORTING EXCESSIVELY.
   ELEMENT FINAL_PART-1.1170 IS DISTORTING EXCESSIVELY.
   ELEMENT FINAL_PART-1.1173 IS DISTORTING EXCESSIVELY.
   ELEMENT FINAL_PART-1.1176 IS DISTORTING EXCESSIVELY.
   ELEMENT FINAL_PART-1.1177 IS DISTORTING EXCESSIVELY.
   ELEMENT FINAL_PART-1.1182 IS DISTORTING EXCESSIVELY.
   ELEMENT FINAL_PART-1.1185 IS DISTORTING EXCESSIVELY.
   ELEMENT FINAL_PART-1.1189 IS DISTORTING EXCESSIVELY.
   ELEMENT FINAL_PART-1.1191 IS DISTORTING EXCESSIVELY.
   ELEMENT FINAL_PART-1.1192 IS DISTORTING EXCESSIVELY.
   ELEMENT FINAL_PART-1.1193 IS DISTORTING EXCESSIVELY.
   ELEMENT FINAL_PART-1.1194 IS DISTORTING EXCESSIVELY.
   ELEMENT FINAL_PART-1.1197 IS DISTORTING EXCESSIVELY.
   ELEMENT FINAL_PART-1.1198 IS DISTORTING EXCESSIVELY.
   ELEMENT FINAL_PART-1.1200 IS DISTORTING EXCESSIVELY.
   ELEMENT FINAL_PART-1.1208 IS DISTORTING EXCESSIVELY.
   ELEMENT FINAL_PART-1.1210 IS DISTORTING EXCESSIVELY.
   ELEMENT FINAL_PART-1.1211 IS DISTORTING EXCESSIVELY.
   ELEMENT FINAL_PART-1.1216 IS DISTORTING EXCESSIVELY.
   ELEMENT FINAL_PART-1.1219 IS DISTORTING EXCESSIVELY.
   ELEMENT FINAL_PART-1.1220 IS DISTORTING EXCESSIVELY.
   ELEMENT FINAL_PART-1.1221 IS DISTORTING EXCESSIVELY.
   ELEMENT FINAL_PART-1.1222 IS DISTORTING EXCESSIVELY.
   ELEMENT FINAL_PART-1.1223 IS DISTORTING EXCESSIVELY.
   ELEMENT FINAL_PART-1.1225 IS DISTORTING EXCESSIVELY.
   ELEMENT FINAL_PART-1.1227 IS DISTORTING EXCESSIVELY.
   ELEMENT FINAL_PART-1.1230 IS DISTORTING EXCESSIVELY.
   ELEMENT FINAL_PART-1.1232 IS DISTORTING EXCESSIVELY.
   ELEMENT FINAL_PART-1.1233 IS DISTORTING EXCESSIVELY.
   ELEMENT FINAL_PART-1.1235 IS DISTORTING EXCESSIVELY.
   ELEMENT FINAL_PART-1.1238 IS DISTORTING EXCESSIVELY.
   ELEMENT FINAL_PART-1.1240 IS DISTORTING EXCESSIVELY.
   ELEMENT FINAL_PART-1.1242 IS DISTORTING EXCESSIVELY.
   ELEMENT FINAL_PART-1.1245 IS DISTORTING EXCESSIVELY.
   ELEMENT FINAL_PART-1.1246 IS DISTORTING EXCESSIVELY.
   ELEMENT FINAL_PART-1.1248 IS DISTORTING EXCESSIVELY.
   ELEMENT FINAL_PART-1.1251 IS DISTORTING EXCESSIVELY.
   ELEMENT FINAL_PART-1.1254 IS DISTORTING EXCESSIVELY.
   ELEMENT FINAL_PART-1.1258 IS DISTORTING EXCESSIVELY.
   ELEMENT FINAL_PART-1.1259 IS DISTORTING EXCESSIVELY.
   ELEMENT FINAL_PART-1.1260 IS DISTORTING EXCESSIVELY.
   ELEMENT FINAL_PART-1.1264 IS DISTORTING EXCESSIVELY.
   ELEMENT FINAL_PART-1.1266 IS DISTORTING EXCESSIVELY.
   ELEMENT FINAL_PART-1.1269 IS DISTORTING EXCESSIVELY.
   ELEMENT FINAL_PART-1.1271 IS DISTORTING EXCESSIVELY.
   ELEMENT FINAL_PART-1.1272 IS DISTORTING EXCESSIVELY.
   ELEMENT FINAL_PART-1.1273 IS DISTORTING EXCESSIVELY.
   ELEMENT FINAL_PART-1.1274 IS DISTORTING EXCESSIVELY.
   ELEMENT FINAL_PART-1.1276 IS DISTORTING EXCESSIVELY.
   ELEMENT FINAL_PART-1.1279 IS DISTORTING EXCESSIVELY.
   ELEMENT FINAL_PART-1.1281 IS DISTORTING EXCESSIVELY.
   ELEMENT FINAL_PART-1.1282 IS DISTORTING EXCESSIVELY.
   ELEMENT FINAL_PART-1.1284 IS DISTORTING EXCESSIVELY.
   ELEMENT FINAL_PART-1.1286 IS DISTORTING EXCESSIVELY.
   ELEMENT FINAL_PART-1.1287 IS DISTORTING EXCESSIVELY.
   ELEMENT FINAL_PART-1.1288 IS DISTORTING EXCESSIVELY.
   ELEMENT FINAL_PART-1.1289 IS DISTORTING EXCESSIVELY.
   ELEMENT FINAL_PART-1.1290 IS DISTORTING EXCESSIVELY.
   ELEMENT FINAL_PART-1.1291 IS DISTORTING EXCESSIVELY.
   ELEMENT FINAL_PART-1.1293 IS DISTORTING EXCESSIVELY.
   ELEMENT FINAL_PART-1.1295 IS DISTORTING EXCESSIVELY.
   ELEMENT FINAL_PART-1.1297 IS DISTORTING EXCESSIVELY.
   ELEMENT FINAL_PART-1.1298 IS DISTORTING EXCESSIVELY.
   ELEMENT FINAL_PART-1.1299 IS DISTORTING EXCESSIVELY.
   ELEMENT FINAL_PART-1.1300 IS DISTORTING EXCESSIVELY.
   ELEMENT FINAL_PART-1.1303 IS DISTORTING EXCESSIVELY.
   ELEMENT FINAL_PART-1.1305 IS DISTORTING EXCESSIVELY.
   ELEMENT FINAL_PART-1.1306 IS DISTORTING EXCESSIVELY.
   ELEMENT FINAL_PART-1.1307 IS DISTORTING EXCESSIVELY.
   ELEMENT FINAL_PART-1.1310 IS DISTORTING EXCESSIVELY.
   ELEMENT FINAL_PART-1.1311 IS DISTORTING EXCESSIVELY.
   ELEMENT FINAL_PART-1.1315 IS DISTORTING EXCESSIVELY.
   ELEMENT FINAL_PART-1.1318 IS DISTORTING EXCESSIVELY.
   ELEMENT FINAL_PART-1.1319 IS DISTORTING EXCESSIVELY.
   ELEMENT FINAL_PART-1.1324 IS DISTORTING EXCESSIVELY.
   ELEMENT FINAL_PART-1.1325 IS DISTORTING EXCESSIVELY.
   ELEMENT FINAL_PART-1.1330 IS DISTORTING EXCESSIVELY.
   ELEMENT FINAL_PART-1.1334 IS DISTORTING EXCESSIVELY.
   ELEMENT FINAL_PART-1.1335 IS DISTORTING EXCESSIVELY.
   ELEMENT FINAL_PART-1.1336 IS DISTORTING EXCESSIVELY.
   ELEMENT FINAL_PART-1.1337 IS DISTORTING EXCESSIVELY.
   ELEMENT FINAL_PART-1.1338 IS DISTORTING EXCESSIVELY.
   ELEMENT FINAL_PART-1.1340 IS DISTORTING EXCESSIVELY.
   ELEMENT FINAL_PART-1.1341 IS DISTORTING EXCESSIVELY.
   ELEMENT FINAL_PART-1.1343 IS DISTORTING EXCESSIVELY.
   ELEMENT FINAL_PART-1.1344 IS DISTORTING EXCESSIVELY.
   ELEMENT FINAL_PART-1.1349 IS DISTORTING EXCESSIVELY.
   ELEMENT FINAL_PART-1.1350 IS DISTORTING EXCESSIVELY.
   ELEMENT FINAL_PART-1.1351 IS DISTORTING EXCESSIVELY.
   ELEMENT FINAL_PART-1.1354 IS DISTORTING EXCESSIVELY.
   ELEMENT FINAL_PART-1.1355 IS DISTORTING EXCESSIVELY.
   ELEMENT FINAL_PART-1.1356 IS DISTORTING EXCESSIVELY.
   ELEMENT FINAL_PART-1.1357 IS DISTORTING EXCESSIVELY.
   ELEMENT FINAL_PART-1.1358 IS DISTORTING EXCESSIVELY.
   ELEMENT FINAL_PART-1.1359 IS DISTORTING EXCESSIVELY.
   ELEMENT FINAL_PART-1.1362 IS DISTORTING EXCESSIVELY.
   ELEMENT FINAL_PART-1.1364 IS DISTORTING EXCESSIVELY.
   ELEMENT FINAL_PART-1.1365 IS DISTORTING EXCESSIVELY.
   ELEMENT FINAL_PART-1.1368 IS DISTORTING EXCESSIVELY.
   ELEMENT FINAL_PART-1.1369 IS DISTORTING EXCESSIVELY.
   ELEMENT FINAL_PART-1.1370 IS DISTORTING EXCESSIVELY.
   ELEMENT FINAL_PART-1.1371 IS DISTORTING EXCESSIVELY.
   ELEMENT FINAL_PART-1.1376 IS DISTORTING EXCESSIVELY.
   ELEMENT FINAL_PART-1.1379 IS DISTORTING EXCESSIVELY.
   ELEMENT FINAL_PART-1.1382 IS DISTORTING EXCESSIVELY.
   ELEMENT FINAL_PART-1.1383 IS DISTORTING EXCESSIVELY.
   ELEMENT FINAL_PART-1.1384 IS DISTORTING EXCESSIVELY.
   ELEMENT FINAL_PART-1.1389 IS DISTORTING EXCESSIVELY.
   ELEMENT FINAL_PART-1.1390 IS DISTORTING EXCESSIVELY.
   ELEMENT FINAL_PART-1.1391 IS DISTORTING EXCESSIVELY.
   ELEMENT FINAL_PART-1.1392 IS DISTORTING EXCESSIVELY.
   ELEMENT FINAL_PART-1.1393 IS DISTORTING EXCESSIVELY.
   ELEMENT FINAL_PART-1.1395 IS DISTORTING EXCESSIVELY.
   ELEMENT FINAL_PART-1.1396 IS DISTORTING EXCESSIVELY.
   ELEMENT FINAL_PART-1.1398 IS DISTORTING EXCESSIVELY.
   ELEMENT FINAL_PART-1.1401 IS DISTORTING EXCESSIVELY.
   ELEMENT FINAL_PART-1.1402 IS DISTORTING EXCESSIVELY.
   ELEMENT FINAL_PART-1.1403 IS DISTORTING EXCESSIVELY.
   ELEMENT FINAL_PART-1.1405 IS DISTORTING EXCESSIVELY.
   ELEMENT FINAL_PART-1.1406 IS DISTORTING EXCESSIVELY.
   ELEMENT FINAL_PART-1.1410 IS DISTORTING EXCESSIVELY.
   ELEMENT FINAL_PART-1.1411 IS DISTORTING EXCESSIVELY.
   ELEMENT FINAL_PART-1.1412 IS DISTORTING EXCESSIVELY.
   ELEMENT FINAL_PART-1.1416 IS DISTORTING EXCESSIVELY.
   ELEMENT FINAL_PART-1.1420 IS DISTORTING EXCESSIVELY.
   ELEMENT FINAL_PART-1.1423 IS DISTORTING EXCESSIVELY.
   ELEMENT FINAL_PART-1.1424 IS DISTORTING EXCESSIVELY.
   ELEMENT FINAL_PART-1.1427 IS DISTORTING EXCESSIVELY.
   ELEMENT FINAL_PART-1.1428 IS DISTORTING EXCESSIVELY.
   ELEMENT FINAL_PART-1.1430 IS DISTORTING EXCESSIVELY.
   ELEMENT FINAL_PART-1.1431 IS DISTORTING EXCESSIVELY.
   ELEMENT FINAL_PART-1.1432 IS DISTORTING EXCESSIVELY.
   ELEMENT FINAL_PART-1.1435 IS DISTORTING EXCESSIVELY.
   ELEMENT FINAL_PART-1.1438 IS DISTORTING EXCESSIVELY.
   ELEMENT FINAL_PART-1.1445 IS DISTORTING EXCESSIVELY.
   ELEMENT FINAL_PART-1.1446 IS DISTORTING EXCESSIVELY.
   ELEMENT FINAL_PART-1.1449 IS DISTORTING EXCESSIVELY.
   ELEMENT FINAL_PART-1.1451 IS DISTORTING EXCESSIVELY.
   ELEMENT FINAL_PART-1.1453 IS DISTORTING EXCESSIVELY.
   ELEMENT FINAL_PART-1.1454 IS DISTORTING EXCESSIVELY.
   ELEMENT FINAL_PART-1.1456 IS DISTORTING EXCESSIVELY.
   ELEMENT FINAL_PART-1.1457 IS DISTORTING EXCESSIVELY.
   ELEMENT FINAL_PART-1.1460 IS DISTORTING EXCESSIVELY.
   ELEMENT FINAL_PART-1.1466 IS DISTORTING EXCESSIVELY.
   ELEMENT FINAL_PART-1.1470 IS DISTORTING EXCESSIVELY.
   ELEMENT FINAL_PART-1.1473 IS DISTORTING EXCESSIVELY.
   ELEMENT FINAL_PART-1.1474 IS DISTORTING EXCESSIVELY.
   ELEMENT FINAL_PART-1.1476 IS DISTORTING EXCESSIVELY.
   ELEMENT FINAL_PART-1.1477 IS DISTORTING EXCESSIVELY.
   ELEMENT FINAL_PART-1.1478 IS DISTORTING EXCESSIVELY.
   ELEMENT FINAL_PART-1.1482 IS DISTORTING EXCESSIVELY.
   ELEMENT FINAL_PART-1.1486 IS DISTORTING EXCESSIVELY.
   ELEMENT FINAL_PART-1.1487 IS DISTORTING EXCESSIVELY.
   ELEMENT FINAL_PART-1.1488 IS DISTORTING EXCESSIVELY.
   ELEMENT FINAL_PART-1.1490 IS DISTORTING EXCESSIVELY.
   ELEMENT FINAL_PART-1.1492 IS DISTORTING EXCESSIVELY.
   ELEMENT FINAL_PART-1.1493 IS DISTORTING EXCESSIVELY.
   ELEMENT FINAL_PART-1.1494 IS DISTORTING EXCESSIVELY.
   ELEMENT FINAL_PART-1.1499 IS DISTORTING EXCESSIVELY.
   ELEMENT FINAL_PART-1.1500 IS DISTORTING EXCESSIVELY.
   ELEMENT FINAL_PART-1.1503 IS DISTORTING EXCESSIVELY.
   ELEMENT FINAL_PART-1.1504 IS DISTORTING EXCESSIVELY.
   ELEMENT FINAL_PART-1.1506 IS DISTORTING EXCESSIVELY.
   ELEMENT FINAL_PART-1.1507 IS DISTORTING EXCESSIVELY.
   ELEMENT FINAL_PART-1.1508 IS DISTORTING EXCESSIVELY.
   ELEMENT FINAL_PART-1.1509 IS DISTORTING EXCESSIVELY.
   ELEMENT FINAL_PART-1.1510 IS DISTORTING EXCESSIVELY.
   ELEMENT FINAL_PART-1.1511 IS DISTORTING EXCESSIVELY.
   ELEMENT FINAL_PART-1.1515 IS DISTORTING EXCESSIVELY.
   ELEMENT FINAL_PART-1.1516 IS DISTORTING EXCESSIVELY.
   ELEMENT FINAL_PART-1.1518 IS DISTORTING EXCESSIVELY.
   ELEMENT FINAL_PART-1.1520 IS DISTORTING EXCESSIVELY.
   ELEMENT FINAL_PART-1.1521 IS DISTORTING EXCESSIVELY.
   ELEMENT FINAL_PART-1.1526 IS DISTORTING EXCESSIVELY.
   ELEMENT FINAL_PART-1.1529 IS DISTORTING EXCESSIVELY.
   ELEMENT FINAL_PART-1.1530 IS DISTORTING EXCESSIVELY.
   ELEMENT FINAL_PART-1.1532 IS DISTORTING EXCESSIVELY.
   ELEMENT FINAL_PART-1.1533 IS DISTORTING EXCESSIVELY.
   ELEMENT FINAL_PART-1.1534 IS DISTORTING EXCESSIVELY.
   ELEMENT FINAL_PART-1.1535 IS DISTORTING EXCESSIVELY.
   ELEMENT FINAL_PART-1.1537 IS DISTORTING EXCESSIVELY.
   ELEMENT FINAL_PART-1.1539 IS DISTORTING EXCESSIVELY.
   ELEMENT FINAL_PART-1.1540 IS DISTORTING EXCESSIVELY.
   ELEMENT FINAL_PART-1.1542 IS DISTORTING EXCESSIVELY.
   ELEMENT FINAL_PART-1.1543 IS DISTORTING EXCESSIVELY.
   ELEMENT FINAL_PART-1.1546 IS DISTORTING EXCESSIVELY.
   ELEMENT FINAL_PART-1.1547 IS DISTORTING EXCESSIVELY.
   ELEMENT FINAL_PART-1.1550 IS DISTORTING EXCESSIVELY.
   ELEMENT FINAL_PART-1.1551 IS DISTORTING EXCESSIVELY.
   ELEMENT FINAL_PART-1.1554 IS DISTORTING EXCESSIVELY.
   ELEMENT FINAL_PART-1.1555 IS DISTORTING EXCESSIVELY.
   ELEMENT FINAL_PART-1.1558 IS DISTORTING EXCESSIVELY.
   ELEMENT FINAL_PART-1.1561 IS DISTORTING EXCESSIVELY.
   ELEMENT FINAL_PART-1.1562 IS DISTORTING EXCESSIVELY.
   ELEMENT FINAL_PART-1.1564 IS DISTORTING EXCESSIVELY.
   ELEMENT FINAL_PART-1.1565 IS DISTORTING EXCESSIVELY.
   ELEMENT FINAL_PART-1.1566 IS DISTORTING EXCESSIVELY.
   ELEMENT FINAL_PART-1.1567 IS DISTORTING EXCESSIVELY.
   ELEMENT FINAL_PART-1.1568 IS DISTORTING EXCESSIVELY.
   ELEMENT FINAL_PART-1.1569 IS DISTORTING EXCESSIVELY.
   ELEMENT FINAL_PART-1.1570 IS DISTORTING EXCESSIVELY.
   ELEMENT FINAL_PART-1.1571 IS DISTORTING EXCESSIVELY.
   ELEMENT FINAL_PART-1.1572 IS DISTORTING EXCESSIVELY.
   ELEMENT FINAL_PART-1.1574 IS DISTORTING EXCESSIVELY.
   ELEMENT FINAL_PART-1.1576 IS DISTORTING EXCESSIVELY.
   ELEMENT FINAL_PART-1.1578 IS DISTORTING EXCESSIVELY.
   ELEMENT FINAL_PART-1.1579 IS DISTORTING EXCESSIVELY.
   ELEMENT FINAL_PART-1.1581 IS DISTORTING EXCESSIVELY.
   ELEMENT FINAL_PART-1.1586 IS DISTORTING EXCESSIVELY.
   ELEMENT FINAL_PART-1.1587 IS DISTORTING EXCESSIVELY.
   ELEMENT FINAL_PART-1.1588 IS DISTORTING EXCESSIVELY.
   ELEMENT FINAL_PART-1.1591 IS DISTORTING EXCESSIVELY.
   ELEMENT FINAL_PART-1.1593 IS DISTORTING EXCESSIVELY.
   ELEMENT FINAL_PART-1.1594 IS DISTORTING EXCESSIVELY.
   ELEMENT FINAL_PART-1.1597 IS DISTORTING EXCESSIVELY.
   ELEMENT FINAL_PART-1.1599 IS DISTORTING EXCESSIVELY.
   ELEMENT FINAL_PART-1.1600 IS DISTORTING EXCESSIVELY.
   ELEMENT FINAL_PART-1.1602 IS DISTORTING EXCESSIVELY.
   ELEMENT FINAL_PART-1.1604 IS DISTORTING EXCESSIVELY.
   ELEMENT FINAL_PART-1.1605 IS DISTORTING EXCESSIVELY.
   ELEMENT FINAL_PART-1.1606 IS DISTORTING EXCESSIVELY.
   ELEMENT FINAL_PART-1.1607 IS DISTORTING EXCESSIVELY.
   ELEMENT FINAL_PART-1.1608 IS DISTORTING EXCESSIVELY.
   ELEMENT FINAL_PART-1.1610 IS DISTORTING EXCESSIVELY.
   ELEMENT FINAL_PART-1.1611 IS DISTORTING EXCESSIVELY.
   ELEMENT FINAL_PART-1.1613 IS DISTORTING EXCESSIVELY.
   ELEMENT FINAL_PART-1.1615 IS DISTORTING EXCESSIVELY.
   ELEMENT FINAL_PART-1.1616 IS DISTORTING EXCESSIVELY.
   ELEMENT FINAL_PART-1.1619 IS DISTORTING EXCESSIVELY.
   ELEMENT FINAL_PART-1.1620 IS DISTORTING EXCESSIVELY.
   ELEMENT FINAL_PART-1.1621 IS DISTORTING EXCESSIVELY.
   ELEMENT FINAL_PART-1.1622 IS DISTORTING EXCESSIVELY.
   ELEMENT FINAL_PART-1.1625 IS DISTORTING EXCESSIVELY.
   ELEMENT FINAL_PART-1.1630 IS DISTORTING EXCESSIVELY.
   ELEMENT FINAL_PART-1.1632 IS DISTORTING EXCESSIVELY.
   ELEMENT FINAL_PART-1.1633 IS DISTORTING EXCESSIVELY.
   ELEMENT FINAL_PART-1.1637 IS DISTORTING EXCESSIVELY.
   ELEMENT FINAL_PART-1.1639 IS DISTORTING EXCESSIVELY.
   ELEMENT FINAL_PART-1.1641 IS DISTORTING EXCESSIVELY.
   ELEMENT FINAL_PART-1.1643 IS DISTORTING EXCESSIVELY.
   ELEMENT FINAL_PART-1.1644 IS DISTORTING EXCESSIVELY.
   ELEMENT FINAL_PART-1.1645 IS DISTORTING EXCESSIVELY.
   ELEMENT FINAL_PART-1.1648 IS DISTORTING EXCESSIVELY.
   ELEMENT FINAL_PART-1.1651 IS DISTORTING EXCESSIVELY.
   ELEMENT FINAL_PART-1.1655 IS DISTORTING EXCESSIVELY.
   ELEMENT FINAL_PART-1.1656 IS DISTORTING EXCESSIVELY.
   ELEMENT FINAL_PART-1.1664 IS DISTORTING EXCESSIVELY.
   ELEMENT FINAL_PART-1.1665 IS DISTORTING EXCESSIVELY.
   ELEMENT FINAL_PART-1.1669 IS DISTORTING EXCESSIVELY.
   ELEMENT FINAL_PART-1.1670 IS DISTORTING EXCESSIVELY.
   ELEMENT FINAL_PART-1.1672 IS DISTORTING EXCESSIVELY.
   ELEMENT FINAL_PART-1.1673 IS DISTORTING EXCESSIVELY.
   ELEMENT FINAL_PART-1.1674 IS DISTORTING EXCESSIVELY.
   ELEMENT FINAL_PART-1.1676 IS DISTORTING EXCESSIVELY.
   ELEMENT FINAL_PART-1.1677 IS DISTORTING EXCESSIVELY.
   ELEMENT FINAL_PART-1.1682 IS DISTORTING EXCESSIVELY.
   ELEMENT FINAL_PART-1.1685 IS DISTORTING EXCESSIVELY.
   ELEMENT FINAL_PART-1.1691 IS DISTORTING EXCESSIVELY.
   ELEMENT FINAL_PART-1.1692 IS DISTORTING EXCESSIVELY.
   ELEMENT FINAL_PART-1.1694 IS DISTORTING EXCESSIVELY.
   ELEMENT FINAL_PART-1.1696 IS DISTORTING EXCESSIVELY.
   ELEMENT FINAL_PART-1.1697 IS DISTORTING EXCESSIVELY.
   ELEMENT FINAL_PART-1.1700 IS DISTORTING EXCESSIVELY.
   ELEMENT FINAL_PART-1.1701 IS DISTORTING EXCESSIVELY.
   ELEMENT FINAL_PART-1.1702 IS DISTORTING EXCESSIVELY.
   ELEMENT FINAL_PART-1.1706 IS DISTORTING EXCESSIVELY.
   ELEMENT FINAL_PART-1.1707 IS DISTORTING EXCESSIVELY.
   ELEMENT FINAL_PART-1.1709 IS DISTORTING EXCESSIVELY.
   ELEMENT FINAL_PART-1.1712 IS DISTORTING EXCESSIVELY.
   ELEMENT FINAL_PART-1.1713 IS DISTORTING EXCESSIVELY.
   ELEMENT FINAL_PART-1.1714 IS DISTORTING EXCESSIVELY.
   ELEMENT FINAL_PART-1.1720 IS DISTORTING EXCESSIVELY.
   ELEMENT FINAL_PART-1.1722 IS DISTORTING EXCESSIVELY.
   ELEMENT FINAL_PART-1.1723 IS DISTORTING EXCESSIVELY.
   ELEMENT FINAL_PART-1.1727 IS DISTORTING EXCESSIVELY.
   ELEMENT FINAL_PART-1.1729 IS DISTORTING EXCESSIVELY.
   ELEMENT FINAL_PART-1.1731 IS DISTORTING EXCESSIVELY.
   ELEMENT FINAL_PART-1.1738 IS DISTORTING EXCESSIVELY.
   ELEMENT FINAL_PART-1.1745 IS DISTORTING EXCESSIVELY.
   ELEMENT FINAL_PART-1.1746 IS DISTORTING EXCESSIVELY.
   ELEMENT FINAL_PART-1.1750 IS DISTORTING EXCESSIVELY.
   ELEMENT FINAL_PART-1.1751 IS DISTORTING EXCESSIVELY.
   ELEMENT FINAL_PART-1.1753 IS DISTORTING EXCESSIVELY.
   ELEMENT FINAL_PART-1.1754 IS DISTORTING EXCESSIVELY.
   ELEMENT FINAL_PART-1.1757 IS DISTORTING EXCESSIVELY.
   ELEMENT FINAL_PART-1.1758 IS DISTORTING EXCESSIVELY.
   ELEMENT FINAL_PART-1.1760 IS DISTORTING EXCESSIVELY.
   ELEMENT FINAL_PART-1.1763 IS DISTORTING EXCESSIVELY.
   ELEMENT FINAL_PART-1.1766 IS DISTORTING EXCESSIVELY.
   ELEMENT FINAL_PART-1.1767 IS DISTORTING EXCESSIVELY.
   ELEMENT FINAL_PART-1.1769 IS DISTORTING EXCESSIVELY.
   ELEMENT FINAL_PART-1.1772 IS DISTORTING EXCESSIVELY.
   ELEMENT FINAL_PART-1.1776 IS DISTORTING EXCESSIVELY.
   ELEMENT FINAL_PART-1.1777 IS DISTORTING EXCESSIVELY.
   ELEMENT FINAL_PART-1.1779 IS DISTORTING EXCESSIVELY.
   ELEMENT FINAL_PART-1.1783 IS DISTORTING EXCESSIVELY.
   ELEMENT FINAL_PART-1.1784 IS DISTORTING EXCESSIVELY.
   ELEMENT FINAL_PART-1.1785 IS DISTORTING EXCESSIVELY.
   ELEMENT FINAL_PART-1.1787 IS DISTORTING EXCESSIVELY.
   ELEMENT FINAL_PART-1.1789 IS DISTORTING EXCESSIVELY.
   ELEMENT FINAL_PART-1.1792 IS DISTORTING EXCESSIVELY.
   ELEMENT FINAL_PART-1.1793 IS DISTORTING EXCESSIVELY.
   ELEMENT FINAL_PART-1.1794 IS DISTORTING EXCESSIVELY.
   ELEMENT FINAL_PART-1.1795 IS DISTORTING EXCESSIVELY.
   ELEMENT FINAL_PART-1.1797 IS DISTORTING EXCESSIVELY.
   ELEMENT FINAL_PART-1.1801 IS DISTORTING EXCESSIVELY.
   ELEMENT FINAL_PART-1.1803 IS DISTORTING EXCESSIVELY.
   ELEMENT FINAL_PART-1.1804 IS DISTORTING EXCESSIVELY.
   ELEMENT FINAL_PART-1.1806 IS DISTORTING EXCESSIVELY.
   ELEMENT FINAL_PART-1.1807 IS DISTORTING EXCESSIVELY.
   ELEMENT FINAL_PART-1.1808 IS DISTORTING EXCESSIVELY.
   ELEMENT FINAL_PART-1.1809 IS DISTORTING EXCESSIVELY.
   ELEMENT FINAL_PART-1.1811 IS DISTORTING EXCESSIVELY.
   ELEMENT FINAL_PART-1.1812 IS DISTORTING EXCESSIVELY.
   ELEMENT FINAL_PART-1.1814 IS DISTORTING EXCESSIVELY.
   ELEMENT FINAL_PART-1.1819 IS DISTORTING EXCESSIVELY.
   ELEMENT FINAL_PART-1.1820 IS DISTORTING EXCESSIVELY.
   ELEMENT FINAL_PART-1.1824 IS DISTORTING EXCESSIVELY.
   ELEMENT FINAL_PART-1.1826 IS DISTORTING EXCESSIVELY.
   ELEMENT FINAL_PART-1.1829 IS DISTORTING EXCESSIVELY.
   ELEMENT FINAL_PART-1.1831 IS DISTORTING EXCESSIVELY.
   ELEMENT FINAL_PART-1.1832 IS DISTORTING EXCESSIVELY.
   ELEMENT FINAL_PART-1.1833 IS DISTORTING EXCESSIVELY.
   ELEMENT FINAL_PART-1.1834 IS DISTORTING EXCESSIVELY.
   ELEMENT FINAL_PART-1.1838 IS DISTORTING EXCESSIVELY.
   ELEMENT FINAL_PART-1.1839 IS DISTORTING EXCESSIVELY.
   ELEMENT FINAL_PART-1.1843 IS DISTORTING EXCESSIVELY.
   ELEMENT FINAL_PART-1.1844 IS DISTORTING EXCESSIVELY.
   ELEMENT FINAL_PART-1.1847 IS DISTORTING EXCESSIVELY.
   ELEMENT FINAL_PART-1.1848 IS DISTORTING EXCESSIVELY.
   ELEMENT FINAL_PART-1.1849 IS DISTORTING EXCESSIVELY.
   ELEMENT FINAL_PART-1.1851 IS DISTORTING EXCESSIVELY.
   ELEMENT FINAL_PART-1.1855 IS DISTORTING EXCESSIVELY.
   ELEMENT FINAL_PART-1.1856 IS DISTORTING EXCESSIVELY.
   ELEMENT FINAL_PART-1.1857 IS DISTORTING EXCESSIVELY.
   ELEMENT FINAL_PART-1.1858 IS DISTORTING EXCESSIVELY.
   ELEMENT FINAL_PART-1.1859 IS DISTORTING EXCESSIVELY.
   ELEMENT FINAL_PART-1.1860 IS DISTORTING EXCESSIVELY.
   ELEMENT FINAL_PART-1.1861 IS DISTORTING EXCESSIVELY.
   ELEMENT FINAL_PART-1.1862 IS DISTORTING EXCESSIVELY.
   ELEMENT FINAL_PART-1.1863 IS DISTORTING EXCESSIVELY.
   ELEMENT FINAL_PART-1.1865 IS DISTORTING EXCESSIVELY.
   ELEMENT FINAL_PART-1.1866 IS DISTORTING EXCESSIVELY.
   ELEMENT FINAL_PART-1.1869 IS DISTORTING EXCESSIVELY.
   ELEMENT FINAL_PART-1.1870 IS DISTORTING EXCESSIVELY.
   ELEMENT FINAL_PART-1.1871 IS DISTORTING EXCESSIVELY.
   ELEMENT FINAL_PART-1.1875 IS DISTORTING EXCESSIVELY.
   ELEMENT FINAL_PART-1.1879 IS DISTORTING EXCESSIVELY.
   ELEMENT FINAL_PART-1.1881 IS DISTORTING EXCESSIVELY.
   ELEMENT FINAL_PART-1.1882 IS DISTORTING EXCESSIVELY.
   ELEMENT FINAL_PART-1.1883 IS DISTORTING EXCESSIVELY.
   ELEMENT FINAL_PART-1.1887 IS DISTORTING EXCESSIVELY.
   ELEMENT FINAL_PART-1.1889 IS DISTORTING EXCESSIVELY.
   ELEMENT FINAL_PART-1.1890 IS DISTORTING EXCESSIVELY.
   ELEMENT FINAL_PART-1.1893 IS DISTORTING EXCESSIVELY.
   ELEMENT FINAL_PART-1.1894 IS DISTORTING EXCESSIVELY.
   ELEMENT FINAL_PART-1.1897 IS DISTORTING EXCESSIVELY.
   ELEMENT FINAL_PART-1.1898 IS DISTORTING EXCESSIVELY.
   ELEMENT FINAL_PART-1.1903 IS DISTORTING EXCESSIVELY.
   ELEMENT FINAL_PART-1.1904 IS DISTORTING EXCESSIVELY.
   ELEMENT FINAL_PART-1.1905 IS DISTORTING EXCESSIVELY.
   ELEMENT FINAL_PART-1.1906 IS DISTORTING EXCESSIVELY.
   ELEMENT FINAL_PART-1.1908 IS DISTORTING EXCESSIVELY.
   ELEMENT FINAL_PART-1.1911 IS DISTORTING EXCESSIVELY.
   ELEMENT FINAL_PART-1.1912 IS DISTORTING EXCESSIVELY.
   ELEMENT FINAL_PART-1.1914 IS DISTORTING EXCESSIVELY.
   ELEMENT FINAL_PART-1.1915 IS DISTORTING EXCESSIVELY.
   ELEMENT FINAL_PART-1.1916 IS DISTORTING EXCESSIVELY.
   ELEMENT FINAL_PART-1.1922 IS DISTORTING EXCESSIVELY.
   ELEMENT FINAL_PART-1.1926 IS DISTORTING EXCESSIVELY.
   ELEMENT FINAL_PART-1.1928 IS DISTORTING EXCESSIVELY.
   ELEMENT FINAL_PART-1.1932 IS DISTORTING EXCESSIVELY.
   ELEMENT FINAL_PART-1.1933 IS DISTORTING EXCESSIVELY.
   ELEMENT FINAL_PART-1.1936 IS DISTORTING EXCESSIVELY.
   ELEMENT FINAL_PART-1.1940 IS DISTORTING EXCESSIVELY.
   ELEMENT FINAL_PART-1.1941 IS DISTORTING EXCESSIVELY.
   ELEMENT FINAL_PART-1.1943 IS DISTORTING EXCESSIVELY.
   ELEMENT FINAL_PART-1.1945 IS DISTORTING EXCESSIVELY.
   ELEMENT FINAL_PART-1.1946 IS DISTORTING EXCESSIVELY.
   ELEMENT FINAL_PART-1.1947 IS DISTORTING EXCESSIVELY.
   ELEMENT FINAL_PART-1.1948 IS DISTORTING EXCESSIVELY.
   ELEMENT FINAL_PART-1.1949 IS DISTORTING EXCESSIVELY.
   ELEMENT FINAL_PART-1.1953 IS DISTORTING EXCESSIVELY.
   ELEMENT FINAL_PART-1.1956 IS DISTORTING EXCESSIVELY.
   ELEMENT FINAL_PART-1.1957 IS DISTORTING EXCESSIVELY.
   ELEMENT FINAL_PART-1.1958 IS DISTORTING EXCESSIVELY.
   ELEMENT FINAL_PART-1.1959 IS DISTORTING EXCESSIVELY.
   ELEMENT FINAL_PART-1.1961 IS DISTORTING EXCESSIVELY.
   ELEMENT FINAL_PART-1.1962 IS DISTORTING EXCESSIVELY.
   ELEMENT FINAL_PART-1.1963 IS DISTORTING EXCESSIVELY.
   ELEMENT FINAL_PART-1.1968 IS DISTORTING EXCESSIVELY.
   ELEMENT FINAL_PART-1.1969 IS DISTORTING EXCESSIVELY.
   ELEMENT FINAL_PART-1.1970 IS DISTORTING EXCESSIVELY.
   ELEMENT FINAL_PART-1.1973 IS DISTORTING EXCESSIVELY.
   ELEMENT FINAL_PART-1.1974 IS DISTORTING EXCESSIVELY.
   ELEMENT FINAL_PART-1.1975 IS DISTORTING EXCESSIVELY.
   ELEMENT FINAL_PART-1.1976 IS DISTORTING EXCESSIVELY.
   ELEMENT FINAL_PART-1.1981 IS DISTORTING EXCESSIVELY.
   ELEMENT FINAL_PART-1.1986 IS DISTORTING EXCESSIVELY.
   ELEMENT FINAL_PART-1.1987 IS DISTORTING EXCESSIVELY.
   ELEMENT FINAL_PART-1.1988 IS DISTORTING EXCESSIVELY.
   ELEMENT FINAL_PART-1.1990 IS DISTORTING EXCESSIVELY.
   ELEMENT FINAL_PART-1.1993 IS DISTORTING EXCESSIVELY.
   ELEMENT FINAL_PART-1.1996 IS DISTORTING EXCESSIVELY.
   ELEMENT FINAL_PART-1.1997 IS DISTORTING EXCESSIVELY.
   ELEMENT FINAL_PART-1.1998 IS DISTORTING EXCESSIVELY.
   ELEMENT FINAL_PART-1.2007 IS DISTORTING EXCESSIVELY.
   ELEMENT FINAL_PART-1.2011 IS DISTORTING EXCESSIVELY.
   ELEMENT FINAL_PART-1.2013 IS DISTORTING EXCESSIVELY.
   ELEMENT FINAL_PART-1.2015 IS DISTORTING EXCESSIVELY.
   ELEMENT FINAL_PART-1.2016 IS DISTORTING EXCESSIVELY.
   ELEMENT FINAL_PART-1.2017 IS DISTORTING EXCESSIVELY.
   ELEMENT FINAL_PART-1.2023 IS DISTORTING EXCESSIVELY.
   ELEMENT FINAL_PART-1.2027 IS DISTORTING EXCESSIVELY.
   ELEMENT FINAL_PART-1.2028 IS DISTORTING EXCESSIVELY.
   ELEMENT FINAL_PART-1.2029 IS DISTORTING EXCESSIVELY.
   ELEMENT FINAL_PART-1.2031 IS DISTORTING EXCESSIVELY.
   ELEMENT FINAL_PART-1.2032 IS DISTORTING EXCESSIVELY.
   ELEMENT FINAL_PART-1.2033 IS DISTORTING EXCESSIVELY.
   ELEMENT FINAL_PART-1.2036 IS DISTORTING EXCESSIVELY.
   ELEMENT FINAL_PART-1.2037 IS DISTORTING EXCESSIVELY.
   ELEMENT FINAL_PART-1.2038 IS DISTORTING EXCESSIVELY.
   ELEMENT FINAL_PART-1.2039 IS DISTORTING EXCESSIVELY.
   ELEMENT FINAL_PART-1.2041 IS DISTORTING EXCESSIVELY.
   ELEMENT FINAL_PART-1.2042 IS DISTORTING EXCESSIVELY.
   ELEMENT FINAL_PART-1.2046 IS DISTORTING EXCESSIVELY.
   ELEMENT FINAL_PART-1.2048 IS DISTORTING EXCESSIVELY.
   ELEMENT FINAL_PART-1.2050 IS DISTORTING EXCESSIVELY.
   ELEMENT FINAL_PART-1.2051 IS DISTORTING EXCESSIVELY.
   ELEMENT FINAL_PART-1.2054 IS DISTORTING EXCESSIVELY.
   ELEMENT FINAL_PART-1.2056 IS DISTORTING EXCESSIVELY.
   ELEMENT FINAL_PART-1.2057 IS DISTORTING EXCESSIVELY.
   ELEMENT FINAL_PART-1.2058 IS DISTORTING EXCESSIVELY.
   ELEMENT FINAL_PART-1.2059 IS DISTORTING EXCESSIVELY.
   ELEMENT FINAL_PART-1.2060 IS DISTORTING EXCESSIVELY.
   ELEMENT FINAL_PART-1.2062 IS DISTORTING EXCESSIVELY.
   ELEMENT FINAL_PART-1.2063 IS DISTORTING EXCESSIVELY.
   ELEMENT FINAL_PART-1.2065 IS DISTORTING EXCESSIVELY.
   ELEMENT FINAL_PART-1.2066 IS DISTORTING EXCESSIVELY.
   ELEMENT FINAL_PART-1.2070 IS DISTORTING EXCESSIVELY.
   ELEMENT FINAL_PART-1.2071 IS DISTORTING EXCESSIVELY.
   ELEMENT FINAL_PART-1.2073 IS DISTORTING EXCESSIVELY.
   ELEMENT FINAL_PART-1.2074 IS DISTORTING EXCESSIVELY.
   ELEMENT FINAL_PART-1.2077 IS DISTORTING EXCESSIVELY.
   ELEMENT FINAL_PART-1.2078 IS DISTORTING EXCESSIVELY.
   ELEMENT FINAL_PART-1.2079 IS DISTORTING EXCESSIVELY.
   ELEMENT FINAL_PART-1.2080 IS DISTORTING EXCESSIVELY.
   ELEMENT FINAL_PART-1.2081 IS DISTORTING EXCESSIVELY.
   ELEMENT FINAL_PART-1.2084 IS DISTORTING EXCESSIVELY.
   ELEMENT FINAL_PART-1.2086 IS DISTORTING EXCESSIVELY.
   ELEMENT FINAL_PART-1.2087 IS DISTORTING EXCESSIVELY.
   ELEMENT FINAL_PART-1.2089 IS DISTORTING EXCESSIVELY.
   ELEMENT FINAL_PART-1.2091 IS DISTORTING EXCESSIVELY.
   ELEMENT FINAL_PART-1.2095 IS DISTORTING EXCESSIVELY.
   ELEMENT FINAL_PART-1.2097 IS DISTORTING EXCESSIVELY.
   ELEMENT FINAL_PART-1.2100 IS DISTORTING EXCESSIVELY.
   ELEMENT FINAL_PART-1.2101 IS DISTORTING EXCESSIVELY.
   ELEMENT FINAL_PART-1.2102 IS DISTORTING EXCESSIVELY.
   ELEMENT FINAL_PART-1.2104 IS DISTORTING EXCESSIVELY.
   ELEMENT FINAL_PART-1.2108 IS DISTORTING EXCESSIVELY.
   ELEMENT FINAL_PART-1.2109 IS DISTORTING EXCESSIVELY.
   ELEMENT FINAL_PART-1.2110 IS DISTORTING EXCESSIVELY.
   ELEMENT FINAL_PART-1.2115 IS DISTORTING EXCESSIVELY.
   ELEMENT FINAL_PART-1.2122 IS DISTORTING EXCESSIVELY.
   ELEMENT FINAL_PART-1.2125 IS DISTORTING EXCESSIVELY.
   ELEMENT FINAL_PART-1.2127 IS DISTORTING EXCESSIVELY.
   ELEMENT FINAL_PART-1.2129 IS DISTORTING EXCESSIVELY.
   ELEMENT FINAL_PART-1.2130 IS DISTORTING EXCESSIVELY.
   ELEMENT FINAL_PART-1.2135 IS DISTORTING EXCESSIVELY.
   ELEMENT FINAL_PART-1.2138 IS DISTORTING EXCESSIVELY.
   ELEMENT FINAL_PART-1.2141 IS DISTORTING EXCESSIVELY.
   ELEMENT FINAL_PART-1.2145 IS DISTORTING EXCESSIVELY.
   ELEMENT FINAL_PART-1.2147 IS DISTORTING EXCESSIVELY.
   ELEMENT FINAL_PART-1.2148 IS DISTORTING EXCESSIVELY.
   ELEMENT FINAL_PART-1.2149 IS DISTORTING EXCESSIVELY.
   ELEMENT FINAL_PART-1.2152 IS DISTORTING EXCESSIVELY.
   ELEMENT FINAL_PART-1.2154 IS DISTORTING EXCESSIVELY.
   ELEMENT FINAL_PART-1.2155 IS DISTORTING EXCESSIVELY.
   ELEMENT FINAL_PART-1.2158 IS DISTORTING EXCESSIVELY.
   ELEMENT FINAL_PART-1.2159 IS DISTORTING EXCESSIVELY.
   ELEMENT FINAL_PART-1.2161 IS DISTORTING EXCESSIVELY.
   ELEMENT FINAL_PART-1.2162 IS DISTORTING EXCESSIVELY.
   ELEMENT FINAL_PART-1.2166 IS DISTORTING EXCESSIVELY.
   ELEMENT FINAL_PART-1.2168 IS DISTORTING EXCESSIVELY.
   ELEMENT FINAL_PART-1.2172 IS DISTORTING EXCESSIVELY.
   ELEMENT FINAL_PART-1.2176 IS DISTORTING EXCESSIVELY.
   ELEMENT FINAL_PART-1.2177 IS DISTORTING EXCESSIVELY.
   ELEMENT FINAL_PART-1.2178 IS DISTORTING EXCESSIVELY.
   ELEMENT FINAL_PART-1.2179 IS DISTORTING EXCESSIVELY.
   ELEMENT FINAL_PART-1.2181 IS DISTORTING EXCESSIVELY.
   ELEMENT FINAL_PART-1.2186 IS DISTORTING EXCESSIVELY.
   ELEMENT FINAL_PART-1.2187 IS DISTORTING EXCESSIVELY.
   ELEMENT FINAL_PART-1.2188 IS DISTORTING EXCESSIVELY.
   ELEMENT FINAL_PART-1.2189 IS DISTORTING EXCESSIVELY.
   ELEMENT FINAL_PART-1.2190 IS DISTORTING EXCESSIVELY.
   ELEMENT FINAL_PART-1.2192 IS DISTORTING EXCESSIVELY.
   ELEMENT FINAL_PART-1.2193 IS DISTORTING EXCESSIVELY.
   ELEMENT FINAL_PART-1.2196 IS DISTORTING EXCESSIVELY.
   ELEMENT FINAL_PART-1.2200 IS DISTORTING EXCESSIVELY.
   ELEMENT FINAL_PART-1.2205 IS DISTORTING EXCESSIVELY.
   ELEMENT FINAL_PART-1.2208 IS DISTORTING EXCESSIVELY.
   ELEMENT FINAL_PART-1.2211 IS DISTORTING EXCESSIVELY.
   ELEMENT FINAL_PART-1.2213 IS DISTORTING EXCESSIVELY.
   ELEMENT FINAL_PART-1.2215 IS DISTORTING EXCESSIVELY.
   ELEMENT FINAL_PART-1.2217 IS DISTORTING EXCESSIVELY.
   ELEMENT FINAL_PART-1.2218 IS DISTORTING EXCESSIVELY.
   ELEMENT FINAL_PART-1.2219 IS DISTORTING EXCESSIVELY.
   ELEMENT FINAL_PART-1.2221 IS DISTORTING EXCESSIVELY.
   ELEMENT FINAL_PART-1.2222 IS DISTORTING EXCESSIVELY.
   ELEMENT FINAL_PART-1.2227 IS DISTORTING EXCESSIVELY.
   ELEMENT FINAL_PART-1.2228 IS DISTORTING EXCESSIVELY.
   ELEMENT FINAL_PART-1.2229 IS DISTORTING EXCESSIVELY.
   ELEMENT FINAL_PART-1.2230 IS DISTORTING EXCESSIVELY.
   ELEMENT FINAL_PART-1.2231 IS DISTORTING EXCESSIVELY.
   ELEMENT FINAL_PART-1.2232 IS DISTORTING EXCESSIVELY.
   ELEMENT FINAL_PART-1.2233 IS DISTORTING EXCESSIVELY.
   ELEMENT FINAL_PART-1.2235 IS DISTORTING EXCESSIVELY.
   ELEMENT FINAL_PART-1.2237 IS DISTORTING EXCESSIVELY.
   ELEMENT FINAL_PART-1.2240 IS DISTORTING EXCESSIVELY.
   ELEMENT FINAL_PART-1.2242 IS DISTORTING EXCESSIVELY.
   ELEMENT FINAL_PART-1.2244 IS DISTORTING EXCESSIVELY.
   ELEMENT FINAL_PART-1.2248 IS DISTORTING EXCESSIVELY.
   ELEMENT FINAL_PART-1.2250 IS DISTORTING EXCESSIVELY.
   ELEMENT FINAL_PART-1.2251 IS DISTORTING EXCESSIVELY.
   ELEMENT FINAL_PART-1.2252 IS DISTORTING EXCESSIVELY.
   ELEMENT FINAL_PART-1.2254 IS DISTORTING EXCESSIVELY.
   ELEMENT FINAL_PART-1.2255 IS DISTORTING EXCESSIVELY.
   ELEMENT FINAL_PART-1.2257 IS DISTORTING EXCESSIVELY.
   ELEMENT FINAL_PART-1.2258 IS DISTORTING EXCESSIVELY.
   ELEMENT FINAL_PART-1.2259 IS DISTORTING EXCESSIVELY.
   ELEMENT FINAL_PART-1.2260 IS DISTORTING EXCESSIVELY.
   ELEMENT FINAL_PART-1.2263 IS DISTORTING EXCESSIVELY.
   ELEMENT FINAL_PART-1.2265 IS DISTORTING EXCESSIVELY.
   ELEMENT FINAL_PART-1.2266 IS DISTORTING EXCESSIVELY.
   ELEMENT FINAL_PART-1.2267 IS DISTORTING EXCESSIVELY.
   ELEMENT FINAL_PART-1.2268 IS DISTORTING EXCESSIVELY.
   ELEMENT FINAL_PART-1.2269 IS DISTORTING EXCESSIVELY.
   ELEMENT FINAL_PART-1.2272 IS DISTORTING EXCESSIVELY.
   ELEMENT FINAL_PART-1.2274 IS DISTORTING EXCESSIVELY.
   ELEMENT FINAL_PART-1.2276 IS DISTORTING EXCESSIVELY.
   ELEMENT FINAL_PART-1.2277 IS DISTORTING EXCESSIVELY.
   ELEMENT FINAL_PART-1.2279 IS DISTORTING EXCESSIVELY.
   ELEMENT FINAL_PART-1.2281 IS DISTORTING EXCESSIVELY.
   ELEMENT FINAL_PART-1.2283 IS DISTORTING EXCESSIVELY.
   ELEMENT FINAL_PART-1.2287 IS DISTORTING EXCESSIVELY.
   ELEMENT FINAL_PART-1.2290 IS DISTORTING EXCESSIVELY.
   ELEMENT FINAL_PART-1.2291 IS DISTORTING EXCESSIVELY.
   ELEMENT FINAL_PART-1.2292 IS DISTORTING EXCESSIVELY.
   ELEMENT FINAL_PART-1.2294 IS DISTORTING EXCESSIVELY.
   ELEMENT FINAL_PART-1.2295 IS DISTORTING EXCESSIVELY.
   ELEMENT FINAL_PART-1.2298 IS DISTORTING EXCESSIVELY.
   ELEMENT FINAL_PART-1.2301 IS DISTORTING EXCESSIVELY.
   ELEMENT FINAL_PART-1.2307 IS DISTORTING EXCESSIVELY.
   ELEMENT FINAL_PART-1.2308 IS DISTORTING EXCESSIVELY.
   ELEMENT FINAL_PART-1.2309 IS DISTORTING EXCESSIVELY.
   ELEMENT FINAL_PART-1.2310 IS DISTORTING EXCESSIVELY.
   ELEMENT FINAL_PART-1.2311 IS DISTORTING EXCESSIVELY.
   ELEMENT FINAL_PART-1.2312 IS DISTORTING EXCESSIVELY.
   ELEMENT FINAL_PART-1.2316 IS DISTORTING EXCESSIVELY.
   ELEMENT FINAL_PART-1.2318 IS DISTORTING EXCESSIVELY.
   ELEMENT FINAL_PART-1.2320 IS DISTORTING EXCESSIVELY.
   ELEMENT FINAL_PART-1.2325 IS DISTORTING EXCESSIVELY.
   ELEMENT FINAL_PART-1.2328 IS DISTORTING EXCESSIVELY.
   ELEMENT FINAL_PART-1.2329 IS DISTORTING EXCESSIVELY.
   ELEMENT FINAL_PART-1.2331 IS DISTORTING EXCESSIVELY.
   ELEMENT FINAL_PART-1.2332 IS DISTORTING EXCESSIVELY.
   ELEMENT FINAL_PART-1.2334 IS DISTORTING EXCESSIVELY.
   ELEMENT FINAL_PART-1.2335 IS DISTORTING EXCESSIVELY.
   ELEMENT FINAL_PART-1.2337 IS DISTORTING EXCESSIVELY.
   ELEMENT FINAL_PART-1.2340 IS DISTORTING EXCESSIVELY.
   ELEMENT FINAL_PART-1.2341 IS DISTORTING EXCESSIVELY.
   ELEMENT FINAL_PART-1.2343 IS DISTORTING EXCESSIVELY.
   ELEMENT FINAL_PART-1.2344 IS DISTORTING EXCESSIVELY.
   ELEMENT FINAL_PART-1.2347 IS DISTORTING EXCESSIVELY.
   ELEMENT FINAL_PART-1.2348 IS DISTORTING EXCESSIVELY.
   ELEMENT FINAL_PART-1.2350 IS DISTORTING EXCESSIVELY.
   ELEMENT FINAL_PART-1.2351 IS DISTORTING EXCESSIVELY.
   ELEMENT FINAL_PART-1.2353 IS DISTORTING EXCESSIVELY.
   ELEMENT FINAL_PART-1.2355 IS DISTORTING EXCESSIVELY.
   ELEMENT FINAL_PART-1.2358 IS DISTORTING EXCESSIVELY.
   ELEMENT FINAL_PART-1.2360 IS DISTORTING EXCESSIVELY.
   ELEMENT FINAL_PART-1.2363 IS DISTORTING EXCESSIVELY.
   ELEMENT FINAL_PART-1.2364 IS DISTORTING EXCESSIVELY.
   ELEMENT FINAL_PART-1.2368 IS DISTORTING EXCESSIVELY.
   ELEMENT FINAL_PART-1.2369 IS DISTORTING EXCESSIVELY.
   ELEMENT FINAL_PART-1.2371 IS DISTORTING EXCESSIVELY.
   ELEMENT FINAL_PART-1.2372 IS DISTORTING EXCESSIVELY.
   ELEMENT FINAL_PART-1.2375 IS DISTORTING EXCESSIVELY.
   ELEMENT FINAL_PART-1.2377 IS DISTORTING EXCESSIVELY.
   ELEMENT FINAL_PART-1.2378 IS DISTORTING EXCESSIVELY.
   ELEMENT FINAL_PART-1.2379 IS DISTORTING EXCESSIVELY.
   ELEMENT FINAL_PART-1.2380 IS DISTORTING EXCESSIVELY.
   ELEMENT FINAL_PART-1.2383 IS DISTORTING EXCESSIVELY.
   ELEMENT FINAL_PART-1.2384 IS DISTORTING EXCESSIVELY.
   ELEMENT FINAL_PART-1.2385 IS DISTORTING EXCESSIVELY.
   ELEMENT FINAL_PART-1.2386 IS DISTORTING EXCESSIVELY.
   ELEMENT FINAL_PART-1.2388 IS DISTORTING EXCESSIVELY.
   ELEMENT FINAL_PART-1.2389 IS DISTORTING EXCESSIVELY.
   ELEMENT FINAL_PART-1.2395 IS DISTORTING EXCESSIVELY.
   ELEMENT FINAL_PART-1.2400 IS DISTORTING EXCESSIVELY.
   ELEMENT FINAL_PART-1.2401 IS DISTORTING EXCESSIVELY.
   ELEMENT FINAL_PART-1.2403 IS DISTORTING EXCESSIVELY.
   ELEMENT FINAL_PART-1.2408 IS DISTORTING EXCESSIVELY.
   ELEMENT FINAL_PART-1.2409 IS DISTORTING EXCESSIVELY.
   ELEMENT FINAL_PART-1.2410 IS DISTORTING EXCESSIVELY.
   ELEMENT FINAL_PART-1.2413 IS DISTORTING EXCESSIVELY.
   ELEMENT FINAL_PART-1.2420 IS DISTORTING EXCESSIVELY.
   ELEMENT FINAL_PART-1.2421 IS DISTORTING EXCESSIVELY.
   ELEMENT FINAL_PART-1.2423 IS DISTORTING EXCESSIVELY.
   ELEMENT FINAL_PART-1.2424 IS DISTORTING EXCESSIVELY.
   ELEMENT FINAL_PART-1.2429 IS DISTORTING EXCESSIVELY.
   ELEMENT FINAL_PART-1.2430 IS DISTORTING EXCESSIVELY.
   ELEMENT FINAL_PART-1.2435 IS DISTORTING EXCESSIVELY.
   ELEMENT FINAL_PART-1.2436 IS DISTORTING EXCESSIVELY.
   ELEMENT FINAL_PART-1.2439 IS DISTORTING EXCESSIVELY.
   ELEMENT FINAL_PART-1.2440 IS DISTORTING EXCESSIVELY.
   ELEMENT FINAL_PART-1.2442 IS DISTORTING EXCESSIVELY.
   ELEMENT FINAL_PART-1.2445 IS DISTORTING EXCESSIVELY.
   ELEMENT FINAL_PART-1.2446 IS DISTORTING EXCESSIVELY.
   ELEMENT FINAL_PART-1.2447 IS DISTORTING EXCESSIVELY.
   ELEMENT FINAL_PART-1.2448 IS DISTORTING EXCESSIVELY.
   ELEMENT FINAL_PART-1.2449 IS DISTORTING EXCESSIVELY.
   ELEMENT FINAL_PART-1.2451 IS DISTORTING EXCESSIVELY.
   ELEMENT FINAL_PART-1.2454 IS DISTORTING EXCESSIVELY.
   ELEMENT FINAL_PART-1.2455 IS DISTORTING EXCESSIVELY.
   ELEMENT FINAL_PART-1.2456 IS DISTORTING EXCESSIVELY.
   ELEMENT FINAL_PART-1.2459 IS DISTORTING EXCESSIVELY.
   ELEMENT FINAL_PART-1.2461 IS DISTORTING EXCESSIVELY.
   ELEMENT FINAL_PART-1.2466 IS DISTORTING EXCESSIVELY.
   ELEMENT FINAL_PART-1.2469 IS DISTORTING EXCESSIVELY.
   ELEMENT FINAL_PART-1.2470 IS DISTORTING EXCESSIVELY.
   ELEMENT FINAL_PART-1.2474 IS DISTORTING EXCESSIVELY.
   ELEMENT FINAL_PART-1.2476 IS DISTORTING EXCESSIVELY.
   ELEMENT FINAL_PART-1.2477 IS DISTORTING EXCESSIVELY.
   ELEMENT FINAL_PART-1.2478 IS DISTORTING EXCESSIVELY.
   ELEMENT FINAL_PART-1.2479 IS DISTORTING EXCESSIVELY.
   ELEMENT FINAL_PART-1.2480 IS DISTORTING EXCESSIVELY.
   ELEMENT FINAL_PART-1.2482 IS DISTORTING EXCESSIVELY.
   ELEMENT FINAL_PART-1.2483 IS DISTORTING EXCESSIVELY.
   ELEMENT FINAL_PART-1.2489 IS DISTORTING EXCESSIVELY.
   ELEMENT FINAL_PART-1.2490 IS DISTORTING EXCESSIVELY.
   ELEMENT FINAL_PART-1.2494 IS DISTORTING EXCESSIVELY.
   ELEMENT FINAL_PART-1.2495 IS DISTORTING EXCESSIVELY.
   ELEMENT FINAL_PART-1.2500 IS DISTORTING EXCESSIVELY.
   ELEMENT FINAL_PART-1.2501 IS DISTORTING EXCESSIVELY.
   ELEMENT FINAL_PART-1.2505 IS DISTORTING EXCESSIVELY.
   ELEMENT FINAL_PART-1.2506 IS DISTORTING EXCESSIVELY.
   ELEMENT FINAL_PART-1.2508 IS DISTORTING EXCESSIVELY.
   ELEMENT FINAL_PART-1.2509 IS DISTORTING EXCESSIVELY.
   ELEMENT FINAL_PART-1.2511 IS DISTORTING EXCESSIVELY.
   ELEMENT FINAL_PART-1.2513 IS DISTORTING EXCESSIVELY.
   ELEMENT FINAL_PART-1.2514 IS DISTORTING EXCESSIVELY.
   ELEMENT FINAL_PART-1.2516 IS DISTORTING EXCESSIVELY.
   ELEMENT FINAL_PART-1.2521 IS DISTORTING EXCESSIVELY.
   ELEMENT FINAL_PART-1.2522 IS DISTORTING EXCESSIVELY.
   ELEMENT FINAL_PART-1.2524 IS DISTORTING EXCESSIVELY.
   ELEMENT FINAL_PART-1.2525 IS DISTORTING EXCESSIVELY.
   ELEMENT FINAL_PART-1.2526 IS DISTORTING EXCESSIVELY.
   ELEMENT FINAL_PART-1.2527 IS DISTORTING EXCESSIVELY.
   ELEMENT FINAL_PART-1.2528 IS DISTORTING EXCESSIVELY.
   ELEMENT FINAL_PART-1.2530 IS DISTORTING EXCESSIVELY.
   ELEMENT FINAL_PART-1.2534 IS DISTORTING EXCESSIVELY.
   ELEMENT FINAL_PART-1.2536 IS DISTORTING EXCESSIVELY.
   ELEMENT FINAL_PART-1.2540 IS DISTORTING EXCESSIVELY.
   ELEMENT FINAL_PART-1.2541 IS DISTORTING EXCESSIVELY.
   ELEMENT FINAL_PART-1.2543 IS DISTORTING EXCESSIVELY.
   ELEMENT FINAL_PART-1.2545 IS DISTORTING EXCESSIVELY.
   ELEMENT FINAL_PART-1.2546 IS DISTORTING EXCESSIVELY.
   ELEMENT FINAL_PART-1.2548 IS DISTORTING EXCESSIVELY.
   ELEMENT FINAL_PART-1.2550 IS DISTORTING EXCESSIVELY.
   ELEMENT FINAL_PART-1.2559 IS DISTORTING EXCESSIVELY.
   ELEMENT FINAL_PART-1.2560 IS DISTORTING EXCESSIVELY.
   ELEMENT FINAL_PART-1.2563 IS DISTORTING EXCESSIVELY.
   ELEMENT FINAL_PART-1.2565 IS DISTORTING EXCESSIVELY.
   ELEMENT FINAL_PART-1.2566 IS DISTORTING EXCESSIVELY.
   ELEMENT FINAL_PART-1.2567 IS DISTORTING EXCESSIVELY.
   ELEMENT FINAL_PART-1.2568 IS DISTORTING EXCESSIVELY.
   ELEMENT FINAL_PART-1.2573 IS DISTORTING EXCESSIVELY.
   ELEMENT FINAL_PART-1.2576 IS DISTORTING EXCESSIVELY.
   ELEMENT FINAL_PART-1.2577 IS DISTORTING EXCESSIVELY.
   ELEMENT FINAL_PART-1.2579 IS DISTORTING EXCESSIVELY.
   ELEMENT FINAL_PART-1.2580 IS DISTORTING EXCESSIVELY.
   ELEMENT FINAL_PART-1.2581 IS DISTORTING EXCESSIVELY.
   ELEMENT FINAL_PART-1.2582 IS DISTORTING EXCESSIVELY.
   ELEMENT FINAL_PART-1.2584 IS DISTORTING EXCESSIVELY.
   ELEMENT FINAL_PART-1.2586 IS DISTORTING EXCESSIVELY.
   ELEMENT FINAL_PART-1.2589 IS DISTORTING EXCESSIVELY.
   ELEMENT FINAL_PART-1.2590 IS DISTORTING EXCESSIVELY.
   ELEMENT FINAL_PART-1.2595 IS DISTORTING EXCESSIVELY.
   ELEMENT FINAL_PART-1.2597 IS DISTORTING EXCESSIVELY.
   ELEMENT FINAL_PART-1.2603 IS DISTORTING EXCESSIVELY.
   ELEMENT FINAL_PART-1.2604 IS DISTORTING EXCESSIVELY.
   ELEMENT FINAL_PART-1.2606 IS DISTORTING EXCESSIVELY.
   ELEMENT FINAL_PART-1.2608 IS DISTORTING EXCESSIVELY.
   ELEMENT FINAL_PART-1.2609 IS DISTORTING EXCESSIVELY.
   ELEMENT FINAL_PART-1.2612 IS DISTORTING EXCESSIVELY.
   ELEMENT FINAL_PART-1.2615 IS DISTORTING EXCESSIVELY.
   ELEMENT FINAL_PART-1.2620 IS DISTORTING EXCESSIVELY.
   ELEMENT FINAL_PART-1.2621 IS DISTORTING EXCESSIVELY.
   ELEMENT FINAL_PART-1.2622 IS DISTORTING EXCESSIVELY.
   ELEMENT FINAL_PART-1.2623 IS DISTORTING EXCESSIVELY.
   ELEMENT FINAL_PART-1.2625 IS DISTORTING EXCESSIVELY.
   ELEMENT FINAL_PART-1.2627 IS DISTORTING EXCESSIVELY.
   ELEMENT FINAL_PART-1.2630 IS DISTORTING EXCESSIVELY.
   ELEMENT FINAL_PART-1.2633 IS DISTORTING EXCESSIVELY.
   ELEMENT FINAL_PART-1.2635 IS DISTORTING EXCESSIVELY.
   ELEMENT FINAL_PART-1.2636 IS DISTORTING EXCESSIVELY.
   ELEMENT FINAL_PART-1.2640 IS DISTORTING EXCESSIVELY.
   ELEMENT FINAL_PART-1.2644 IS DISTORTING EXCESSIVELY.
   ELEMENT FINAL_PART-1.2646 IS DISTORTING EXCESSIVELY.
   ELEMENT FINAL_PART-1.2648 IS DISTORTING EXCESSIVELY.
   ELEMENT FINAL_PART-1.2649 IS DISTORTING EXCESSIVELY.
   ELEMENT FINAL_PART-1.2650 IS DISTORTING EXCESSIVELY.
   ELEMENT FINAL_PART-1.2651 IS DISTORTING EXCESSIVELY.
   ELEMENT FINAL_PART-1.2653 IS DISTORTING EXCESSIVELY.
   ELEMENT FINAL_PART-1.2658 IS DISTORTING EXCESSIVELY.
   ELEMENT FINAL_PART-1.2659 IS DISTORTING EXCESSIVELY.
   ELEMENT FINAL_PART-1.2660 IS DISTORTING EXCESSIVELY.
   ELEMENT FINAL_PART-1.2661 IS DISTORTING EXCESSIVELY.
   ELEMENT FINAL_PART-1.2662 IS DISTORTING EXCESSIVELY.
   ELEMENT FINAL_PART-1.2668 IS DISTORTING EXCESSIVELY.
   ELEMENT FINAL_PART-1.2670 IS DISTORTING EXCESSIVELY.
   ELEMENT FINAL_PART-1.2672 IS DISTORTING EXCESSIVELY.
   ELEMENT FINAL_PART-1.2673 IS DISTORTING EXCESSIVELY.
   ELEMENT FINAL_PART-1.2674 IS DISTORTING EXCESSIVELY.
   ELEMENT FINAL_PART-1.2675 IS DISTORTING EXCESSIVELY.
   ELEMENT FINAL_PART-1.2678 IS DISTORTING EXCESSIVELY.
   ELEMENT FINAL_PART-1.2679 IS DISTORTING EXCESSIVELY.
   ELEMENT FINAL_PART-1.2680 IS DISTORTING EXCESSIVELY.
   ELEMENT FINAL_PART-1.2681 IS DISTORTING EXCESSIVELY.
   ELEMENT FINAL_PART-1.2682 IS DISTORTING EXCESSIVELY.
   ELEMENT FINAL_PART-1.2684 IS DISTORTING EXCESSIVELY.
   ELEMENT FINAL_PART-1.2687 IS DISTORTING EXCESSIVELY.
   ELEMENT FINAL_PART-1.2690 IS DISTORTING EXCESSIVELY.
   ELEMENT FINAL_PART-1.2691 IS DISTORTING EXCESSIVELY.
   ELEMENT FINAL_PART-1.2694 IS DISTORTING EXCESSIVELY.
   ELEMENT FINAL_PART-1.2697 IS DISTORTING EXCESSIVELY.
   ELEMENT FINAL_PART-1.2699 IS DISTORTING EXCESSIVELY.
   ELEMENT FINAL_PART-1.2701 IS DISTORTING EXCESSIVELY.
   ELEMENT FINAL_PART-1.2703 IS DISTORTING EXCESSIVELY.
   ELEMENT FINAL_PART-1.2704 IS DISTORTING EXCESSIVELY.
   ELEMENT FINAL_PART-1.2705 IS DISTORTING EXCESSIVELY.
   ELEMENT FINAL_PART-1.2708 IS DISTORTING EXCESSIVELY.
   ELEMENT FINAL_PART-1.2712 IS DISTORTING EXCESSIVELY.
   ELEMENT FINAL_PART-1.2714 IS DISTORTING EXCESSIVELY.
   ELEMENT FINAL_PART-1.2717 IS DISTORTING EXCESSIVELY.
   ELEMENT FINAL_PART-1.2719 IS DISTORTING EXCESSIVELY.
[...]
 LARGEST INCREMENT OF DISP.        -3.122E-03   AT NODE        119   DOF  1
   INSTANCE: FINAL_PART-1                                                                    
 LARGEST CORRECTION TO DISP.        5.396E-04   AT NODE        144   DOF  3
   INSTANCE: FINAL_PART-1                                                                    
          FORCE     EQUILIBRIUM NOT ACHIEVED WITHIN TOLERANCE.
 
	SYMMETRIC PURE THREAD-BASED DIRECT SPARSE SOLVER RUNNING ON
 	1 HOST x 1 MPI RANK PER HOST x 1 THREAD PER RANK
        NUMBER OF EQUATIONS:  107862
        NUMBER OF RHS:        1
        NUMBER OF FLOPS:      7.476e+09
        SOLVER ELAPSED TIME:  567ms
 

 ***WARNING: THE SYSTEM MATRIX HAS 1 NEGATIVE EIGENVALUES.
             EXPLANATIONS ARE SUGGESTED AFTER THE FIRST OCCURRENCE OF THIS MESSAGE.

               CONVERGENCE CHECKS FOR EQUILIBRIUM ITERATION     2


 AVERAGE FORCE                      0.238       TIME AVG. FORCE       0.133    
 LARGEST SCALED RESIDUAL FORCE     -3.041E-02   AT NODE       6504   DOF  3
   INSTANCE: FINAL_PART-1                                                                    
  CORRESPONDING RESIDUAL FORCE     -3.041E-02
 LARGEST INCREMENT OF DISP.        -3.134E-03   AT NODE        119   DOF  1
   INSTANCE: FINAL_PART-1                                                                    
 LARGEST CORRECTION TO DISP.       -1.272E-05   AT NODE         18   DOF  1
   INSTANCE: FINAL_PART-1                                                                    
          FORCE     EQUILIBRIUM NOT ACHIEVED WITHIN TOLERANCE.
 
	SYMMETRIC PURE THREAD-BASED DIRECT SPARSE SOLVER RUNNING ON
 	1 HOST x 1 MPI RANK PER HOST x 1 THREAD PER RANK
        NUMBER OF EQUATIONS:  107862
        NUMBER OF RHS:        1
        NUMBER OF FLOPS:      7.476e+09
        SOLVER ELAPSED TIME:  573ms
 

 ***WARNING: THE SYSTEM MATRIX HAS 1 NEGATIVE EIGENVALUES.
             EXPLANATIONS ARE SUGGESTED AFTER THE FIRST OCCURRENCE OF THIS MESSAGE.

               CONVERGENCE CHECKS FOR EQUILIBRIUM ITERATION     3


 AVERAGE FORCE                      0.238       TIME AVG. FORCE       0.133    
 LARGEST SCALED RESIDUAL FORCE     -7.018E-02   AT NODE       6062   DOF  2
   INSTANCE: FINAL_PART-1                                                                    
  CORRESPONDING RESIDUAL FORCE     -7.018E-02
 LARGEST INCREMENT OF DISP.        -3.047E-03   AT NODE        119   DOF  1
   INSTANCE: FINAL_PART-1                                                                    
 LARGEST CORRECTION TO DISP.        1.006E-04   AT NODE        159   DOF  3
   INSTANCE: FINAL_PART-1                                                                    
          FORCE     EQUILIBRIUM NOT ACHIEVED WITHIN TOLERANCE.
 
	SYMMETRIC PURE THREAD-BASED DIRECT SPARSE SOLVER RUNNING ON
 	1 HOST x 1 MPI RANK PER HOST x 1 THREAD PER RANK
        NUMBER OF EQUATIONS:  107862
        NUMBER OF RHS:        1
        NUMBER OF FLOPS:      7.476e+09
        SOLVER ELAPSED TIME:  572ms

               CONVERGENCE CHECKS FOR EQUILIBRIUM ITERATION     4


 AVERAGE FORCE                      0.238       TIME AVG. FORCE       0.133    
 LARGEST SCALED RESIDUAL FORCE      1.613E-03   AT NODE       6170   DOF  1
   INSTANCE: FINAL_PART-1                                                                    
  CORRESPONDING RESIDUAL FORCE      1.613E-03
 LARGEST INCREMENT OF DISP.        -3.056E-03   AT NODE        119   DOF  1
   INSTANCE: FINAL_PART-1                                                                    
 LARGEST CORRECTION TO DISP.       -9.022E-06   AT NODE         99   DOF  1
   INSTANCE: FINAL_PART-1                                                                    
          FORCE     EQUILIBRIUM NOT ACHIEVED WITHIN TOLERANCE.
 
	SYMMETRIC PURE THREAD-BASED DIRECT SPARSE SOLVER RUNNING ON
 	1 HOST x 1 MPI RANK PER HOST x 1 THREAD PER RANK
        NUMBER OF EQUATIONS:  107862
        NUMBER OF RHS:        1
        NUMBER OF FLOPS:      7.476e+09
        SOLVER ELAPSED TIME:  573ms

               CONVERGENCE CHECKS FOR EQUILIBRIUM ITERATION     5


 AVERAGE FORCE                      0.239       TIME AVG. FORCE       0.133    
 LARGEST SCALED RESIDUAL FORCE     -0.318       AT NODE       6307   DOF  2
   INSTANCE: FINAL_PART-1                                                                    
  CORRESPONDING RESIDUAL FORCE     -0.318    
 LARGEST INCREMENT OF DISP.        -3.292E-03   AT NODE        119   DOF  1
   INSTANCE: FINAL_PART-1                                                                    
 LARGEST CORRECTION TO DISP.       -2.369E-04   AT NODE        112   DOF  1
   INSTANCE: FINAL_PART-1                                                                    
          FORCE     EQUILIBRIUM NOT ACHIEVED WITHIN TOLERANCE.
 

 ***NOTE: THE SOLUTION APPEARS TO BE DIVERGING. CONVERGENCE IS JUDGED UNLIKELY.


  INCREMENT    36 STARTS. ATTEMPT NUMBER  2, TIME INCREMENT  5.279E-03
 
	SYMMETRIC PURE THREAD-BASED DIRECT SPARSE SOLVER RUNNING ON
 	1 HOST x 1 MPI RANK PER HOST x 1 THREAD PER RANK
        NUMBER OF EQUATIONS:  107862
        NUMBER OF RHS:        1
        NUMBER OF FLOPS:      7.476e+09
        SOLVER ELAPSED TIME:  572ms

               CONVERGENCE CHECKS FOR EQUILIBRIUM ITERATION     1


 AVERAGE FORCE                      0.236       TIME AVG. FORCE       0.133    
 LARGEST SCALED RESIDUAL FORCE     -3.265E-02   AT NODE      15196   DOF  1
   INSTANCE: FINAL_PART-1                                                                    
  CORRESPONDING RESIDUAL FORCE     -3.265E-02
 LARGEST INCREMENT OF DISP.        -7.916E-04   AT NODE        119   DOF  1
   INSTANCE: FINAL_PART-1                                                                    
 LARGEST CORRECTION TO DISP.        1.322E-04   AT NODE        144   DOF  3
   INSTANCE: FINAL_PART-1                                                                    
          FORCE     EQUILIBRIUM NOT ACHIEVED WITHIN TOLERANCE.
 
	SYMMETRIC PURE THREAD-BASED DIRECT SPARSE SOLVER RUNNING ON
 	1 HOST x 1 MPI RANK PER HOST x 1 THREAD PER RANK
        NUMBER OF EQUATIONS:  107862
        NUMBER OF RHS:        1
        NUMBER OF FLOPS:      7.476e+09
        SOLVER ELAPSED TIME:  575ms

               CONVERGENCE CHECKS FOR EQUILIBRIUM ITERATION     2


 AVERAGE FORCE                      0.236       TIME AVG. FORCE       0.133    
 LARGEST SCALED RESIDUAL FORCE     -8.555E-04   AT NODE        496   DOF  2
   INSTANCE: FINAL_PART-1                                                                    
  CORRESPONDING RESIDUAL FORCE     -8.555E-04
 LARGEST INCREMENT OF DISP.        -7.953E-04   AT NODE        119   DOF  1
   INSTANCE: FINAL_PART-1                                                                    
 LARGEST CORRECTION TO DISP.       -3.814E-06   AT NODE         99   DOF  1
   INSTANCE: FINAL_PART-1                                                                    
          FORCE     EQUILIBRIUM NOT ACHIEVED WITHIN TOLERANCE.
 
	SYMMETRIC PURE THREAD-BASED DIRECT SPARSE SOLVER RUNNING ON
 	1 HOST x 1 MPI RANK PER HOST x 1 THREAD PER RANK
        NUMBER OF EQUATIONS:  107862
        NUMBER OF RHS:        1
        NUMBER OF FLOPS:      7.476e+09
        SOLVER ELAPSED TIME:  572ms

               CONVERGENCE CHECKS FOR EQUILIBRIUM ITERATION     3


 AVERAGE FORCE                      0.236       TIME AVG. FORCE       0.133    
 LARGEST SCALED RESIDUAL FORCE     -4.572E-03   AT NODE      18388   DOF  1
   INSTANCE: FINAL_PART-1                                                                    
  CORRESPONDING RESIDUAL FORCE     -4.572E-03
 LARGEST INCREMENT OF DISP.        -8.076E-04   AT NODE        119   DOF  1
   INSTANCE: FINAL_PART-1                                                                    
 LARGEST CORRECTION TO DISP.       -5.101E-05   AT NODE        159   DOF  3
   INSTANCE: FINAL_PART-1                                                                    
          FORCE     EQUILIBRIUM NOT ACHIEVED WITHIN TOLERANCE.
 
	SYMMETRIC PURE THREAD-BASED DIRECT SPARSE SOLVER RUNNING ON
 	1 HOST x 1 MPI RANK PER HOST x 1 THREAD PER RANK
        NUMBER OF EQUATIONS:  107862
        NUMBER OF RHS:        1
        NUMBER OF FLOPS:      7.476e+09
        SOLVER ELAPSED TIME:  571ms

               CONVERGENCE CHECKS FOR EQUILIBRIUM ITERATION     4


 AVERAGE FORCE                      0.236       TIME AVG. FORCE       0.133    
 LARGEST SCALED RESIDUAL FORCE      4.908E-05   AT NODE       6307   DOF  1
   INSTANCE: FINAL_PART-1                                                                    
  CORRESPONDING RESIDUAL FORCE      4.908E-05
 LARGEST INCREMENT OF DISP.        -8.073E-04   AT NODE        119   DOF  1
   INSTANCE: FINAL_PART-1                                                                    
 LARGEST CORRECTION TO DISP.        2.921E-07   AT NODE        119   DOF  1
   INSTANCE: FINAL_PART-1                                                                    
          THE FORCE     EQUILIBRIUM EQUATIONS HAVE CONVERGED

 ITERATION SUMMARY FOR THE INCREMENT:   4 TOTAL ITERATIONS, OF WHICH
   0 ARE SEVERE DISCONTINUITY ITERATIONS AND  4 ARE EQUILIBRIUM ITERATIONS.

 TIME INCREMENT COMPLETED  5.279E-03,  FRACTION OF STEP COMPLETED  0.983    
 STEP TIME COMPLETED       0.983    ,  TOTAL TIME COMPLETED        0.983    


  INCREMENT    37 STARTS. ATTEMPT NUMBER  1, TIME INCREMENT  5.279E-03
 
	SYMMETRIC PURE THREAD-BASED DIRECT SPARSE SOLVER RUNNING ON
 	1 HOST x 1 MPI RANK PER HOST x 1 THREAD PER RANK
        NUMBER OF EQUATIONS:  107862
        NUMBER OF RHS:        1
        NUMBER OF FLOPS:      7.476e+09
        SOLVER ELAPSED TIME:  580ms

               CONVERGENCE CHECKS FOR EQUILIBRIUM ITERATION     1


 AVERAGE FORCE                      0.237       TIME AVG. FORCE       0.136    
 LARGEST SCALED RESIDUAL FORCE     -1.138E-02   AT NODE      15196   DOF  1
   INSTANCE: FINAL_PART-1                                                                    
  CORRESPONDING RESIDUAL FORCE     -1.138E-02
 LARGEST INCREMENT OF DISP.        -8.176E-04   AT NODE        119   DOF  1
   INSTANCE: FINAL_PART-1                                                                    
 LARGEST CORRECTION TO DISP.        7.665E-05   AT NODE        144   DOF  3
   INSTANCE: FINAL_PART-1                                                                    
          FORCE     EQUILIBRIUM NOT ACHIEVED WITHIN TOLERANCE.
 
	SYMMETRIC PURE THREAD-BASED DIRECT SPARSE SOLVER RUNNING ON
 	1 HOST x 1 MPI RANK PER HOST x 1 THREAD PER RANK
        NUMBER OF EQUATIONS:  107862
        NUMBER OF RHS:        1
        NUMBER OF FLOPS:      7.476e+09
        SOLVER ELAPSED TIME:  576ms

               CONVERGENCE CHECKS FOR EQUILIBRIUM ITERATION     2


 AVERAGE FORCE                      0.237       TIME AVG. FORCE       0.136    
 LARGEST SCALED RESIDUAL FORCE     -3.886E-04   AT NODE        496   DOF  2
   INSTANCE: FINAL_PART-1                                                                    
  CORRESPONDING RESIDUAL FORCE     -3.886E-04
 LARGEST INCREMENT OF DISP.        -8.208E-04   AT NODE        119   DOF  1
   INSTANCE: FINAL_PART-1                                                                    
 LARGEST CORRECTION TO DISP.       -3.333E-06   AT NODE         99   DOF  1
   INSTANCE: FINAL_PART-1                                                                    
          THE FORCE     EQUILIBRIUM EQUATIONS HAVE CONVERGED
          TIME INCREMENT MAY NOW INCREASE TO    7.919E-03

 ITERATION SUMMARY FOR THE INCREMENT:   2 TOTAL ITERATIONS, OF WHICH
   0 ARE SEVERE DISCONTINUITY ITERATIONS AND  2 ARE EQUILIBRIUM ITERATIONS.

 TIME INCREMENT COMPLETED  5.279E-03,  FRACTION OF STEP COMPLETED  0.988    
 STEP TIME COMPLETED       0.988    ,  TOTAL TIME COMPLETED        0.988    


  INCREMENT    38 STARTS. ATTEMPT NUMBER  1, TIME INCREMENT  7.919E-03
 
	SYMMETRIC PURE THREAD-BASED DIRECT SPARSE SOLVER RUNNING ON
 	1 HOST x 1 MPI RANK PER HOST x 1 THREAD PER RANK
        NUMBER OF EQUATIONS:  107862
        NUMBER OF RHS:        1
        NUMBER OF FLOPS:      7.476e+09
        SOLVER ELAPSED TIME:  573ms

               CONVERGENCE CHECKS FOR EQUILIBRIUM ITERATION     1


 AVERAGE FORCE                      0.239       TIME AVG. FORCE       0.138    
 LARGEST SCALED RESIDUAL FORCE     -2.756E-02   AT NODE      15196   DOF  1
   INSTANCE: FINAL_PART-1                                                                    
  CORRESPONDING RESIDUAL FORCE     -2.756E-02
 LARGEST INCREMENT OF DISP.        -1.272E-03   AT NODE         80   DOF  1
   INSTANCE: FINAL_PART-1                                                                    
 LARGEST CORRECTION TO DISP.        1.132E-04   AT NODE        144   DOF  3
   INSTANCE: FINAL_PART-1                                                                    
          FORCE     EQUILIBRIUM NOT ACHIEVED WITHIN TOLERANCE.
 
	SYMMETRIC PURE THREAD-BASED DIRECT SPARSE SOLVER RUNNING ON
 	1 HOST x 1 MPI RANK PER HOST x 1 THREAD PER RANK
        NUMBER OF EQUATIONS:  107862
        NUMBER OF RHS:        1
        NUMBER OF FLOPS:      7.476e+09
        SOLVER ELAPSED TIME:  585ms

               CONVERGENCE CHECKS FOR EQUILIBRIUM ITERATION     2


 AVERAGE FORCE                      0.239       TIME AVG. FORCE       0.138    
 LARGEST SCALED RESIDUAL FORCE     -7.688E-04   AT NODE        496   DOF  2
   INSTANCE: FINAL_PART-1                                                                    
  CORRESPONDING RESIDUAL FORCE     -7.688E-04
 LARGEST INCREMENT OF DISP.        -1.276E-03   AT NODE         80   DOF  1
   INSTANCE: FINAL_PART-1                                                                    
 LARGEST CORRECTION TO DISP.       -3.358E-06   AT NODE         98   DOF  1
   INSTANCE: FINAL_PART-1                                                                    
          FORCE     EQUILIBRIUM NOT ACHIEVED WITHIN TOLERANCE.
 
	SYMMETRIC PURE THREAD-BASED DIRECT SPARSE SOLVER RUNNING ON
 	1 HOST x 1 MPI RANK PER HOST x 1 THREAD PER RANK
        NUMBER OF EQUATIONS:  107862
        NUMBER OF RHS:        1
        NUMBER OF FLOPS:      7.476e+09
        SOLVER ELAPSED TIME:  570ms

               CONVERGENCE CHECKS FOR EQUILIBRIUM ITERATION     3


 AVERAGE FORCE                      0.239       TIME AVG. FORCE       0.138    
 LARGEST SCALED RESIDUAL FORCE     -1.180E-02   AT NODE      15196   DOF  1
   INSTANCE: FINAL_PART-1                                                                    
  CORRESPONDING RESIDUAL FORCE     -1.180E-02
 LARGEST INCREMENT OF DISP.        -1.276E-03   AT NODE         80   DOF  1
   INSTANCE: FINAL_PART-1                                                                    
 LARGEST CORRECTION TO DISP.       -8.048E-05   AT NODE        144   DOF  3
   INSTANCE: FINAL_PART-1                                                                    
          FORCE     EQUILIBRIUM NOT ACHIEVED WITHIN TOLERANCE.
 
	SYMMETRIC PURE THREAD-BASED DIRECT SPARSE SOLVER RUNNING ON
 	1 HOST x 1 MPI RANK PER HOST x 1 THREAD PER RANK
        NUMBER OF EQUATIONS:  107862
        NUMBER OF RHS:        1
        NUMBER OF FLOPS:      7.476e+09
        SOLVER ELAPSED TIME:  567ms

               CONVERGENCE CHECKS FOR EQUILIBRIUM ITERATION     4


 AVERAGE FORCE                      0.239       TIME AVG. FORCE       0.138    
 LARGEST SCALED RESIDUAL FORCE      1.516E-04   AT NODE       6307   DOF  1
   INSTANCE: FINAL_PART-1                                                                    
  CORRESPONDING RESIDUAL FORCE      1.516E-04
 LARGEST INCREMENT OF DISP.        -1.276E-03   AT NODE         80   DOF  1
   INSTANCE: FINAL_PART-1                                                                    
 LARGEST CORRECTION TO DISP.        3.570E-07   AT NODE        119   DOF  1
   INSTANCE: FINAL_PART-1                                                                    
          THE FORCE     EQUILIBRIUM EQUATIONS HAVE CONVERGED

 ITERATION SUMMARY FOR THE INCREMENT:   4 TOTAL ITERATIONS, OF WHICH
   0 ARE SEVERE DISCONTINUITY ITERATIONS AND  4 ARE EQUILIBRIUM ITERATIONS.

 TIME INCREMENT COMPLETED  7.919E-03,  FRACTION OF STEP COMPLETED  0.996    
 STEP TIME COMPLETED       0.996    ,  TOTAL TIME COMPLETED        0.996    


  INCREMENT    39 STARTS. ATTEMPT NUMBER  1, TIME INCREMENT  3.869E-03
 
	SYMMETRIC PURE THREAD-BASED DIRECT SPARSE SOLVER RUNNING ON
 	1 HOST x 1 MPI RANK PER HOST x 1 THREAD PER RANK
        NUMBER OF EQUATIONS:  107862
        NUMBER OF RHS:        1
        NUMBER OF FLOPS:      7.476e+09
        SOLVER ELAPSED TIME:  574ms

               CONVERGENCE CHECKS FOR EQUILIBRIUM ITERATION     1


 AVERAGE FORCE                      0.240       TIME AVG. FORCE       0.141    
 LARGEST SCALED RESIDUAL FORCE     -2.660E-02   AT NODE      15196   DOF  1
   INSTANCE: FINAL_PART-1                                                                    
  CORRESPONDING RESIDUAL FORCE     -2.660E-02
 LARGEST INCREMENT OF DISP.        -6.472E-04   AT NODE         80   DOF  1
   INSTANCE: FINAL_PART-1                                                                    
 LARGEST CORRECTION TO DISP.        1.150E-04   AT NODE        144   DOF  3
   INSTANCE: FINAL_PART-1                                                                    
          FORCE     EQUILIBRIUM NOT ACHIEVED WITHIN TOLERANCE.
 
	SYMMETRIC PURE THREAD-BASED DIRECT SPARSE SOLVER RUNNING ON
 	1 HOST x 1 MPI RANK PER HOST x 1 THREAD PER RANK
        NUMBER OF EQUATIONS:  107862
        NUMBER OF RHS:        1
        NUMBER OF FLOPS:      7.476e+09
        SOLVER ELAPSED TIME:  575ms

               CONVERGENCE CHECKS FOR EQUILIBRIUM ITERATION     2


 AVERAGE FORCE                      0.240       TIME AVG. FORCE       0.141    
 LARGEST SCALED RESIDUAL FORCE     -3.296E-04   AT NODE        496   DOF  2
   INSTANCE: FINAL_PART-1                                                                    
  CORRESPONDING RESIDUAL FORCE     -3.296E-04
 LARGEST INCREMENT OF DISP.        -6.486E-04   AT NODE         80   DOF  1
   INSTANCE: FINAL_PART-1                                                                    
 LARGEST CORRECTION TO DISP.       -1.542E-06   AT NODE         98   DOF  1
   INSTANCE: FINAL_PART-1                                                                    
          THE FORCE     EQUILIBRIUM EQUATIONS HAVE CONVERGED

 ITERATION SUMMARY FOR THE INCREMENT:   2 TOTAL ITERATIONS, OF WHICH
   0 ARE SEVERE DISCONTINUITY ITERATIONS AND  2 ARE EQUILIBRIUM ITERATIONS.

 TIME INCREMENT COMPLETED  3.869E-03,  FRACTION OF STEP COMPLETED   1.00    
 STEP TIME COMPLETED        1.00    ,  TOTAL TIME COMPLETED         1.00    


          THE ANALYSIS HAS BEEN COMPLETED



     ANALYSIS SUMMARY:
     TOTAL OF         39  INCREMENTS
                       7  CUTBACKS IN AUTOMATIC INCREMENTATION
                     222  ITERATIONS INCLUDING CONTACT ITERATIONS IF PRESENT
                     222  PASSES THROUGH THE EQUATION SOLVER OF WHICH 
                     222  INVOLVE MATRIX DECOMPOSITION, INCLUDING
                       0  DECOMPOSITION(S) OF THE MASS MATRIX
                       1  REORDERING OF EQUATIONS TO MINIMIZE WAVEFRONT
                       0  ADDITIONAL RESIDUAL EVALUATIONS FOR LINE SEARCHES
                       0  ADDITIONAL OPERATOR EVALUATIONS FOR LINE SEARCHES
                       1  WARNING MESSAGES DURING USER INPUT PROCESSING
                      40  WARNING MESSAGES DURING ANALYSIS
                       0  ANALYSIS WARNINGS ARE NUMERICAL PROBLEM MESSAGES
                      37  ANALYSIS WARNINGS ARE NEGATIVE EIGENVALUE MESSAGES
                       0  ERROR MESSAGES



     JOB TIME SUMMARY
       USER TIME (SEC)      =     1.26E+03
       SYSTEM TIME (SEC)    =      86.    
       TOTAL CPU TIME (SEC) =     1.34E+03
       WALLCLOCK TIME (SEC) =          400
       MEMORY PEAK (GB)     =            0
