1

   Abaqus 2025                                  Date 22-Feb-2026   Time 21:37:17
   For use by UNIVERSITAET STUTTGART under license from Dassault Systemes or its subsidiary.



                         The Abaqus Software is a product of:

                           Dassault Systemes Americas Corp.
                           1301 Atwood Avenue, Suite 101W
                              Johnston, RI 02919, USA
 


                   The Abaqus Software is available only under license
                   from Dassault Systemes or its subsidiary and may be
                   used or reproduced only in accordance with the terms
                   of such license.
 
                          On machine MIB40-GAUSS 
                          you are authorized to run
                          Abaqus/Standard until 31-Mar-2025

                          Your site id is: 200000000017928 


 
                    For assistance or any other information you may
                    obtain contact information for your local office
                    from the world wide web at:

                      https://www.3ds.com/products-services/simulia/services-support/

 
                * * * * * * * * * * * * * * * * * * * * * * * * * * * * * * 
                *                                                         * 
                *                   *****************                     * 
                *                   *  N O T I C E  *                     * 
                *                   *****************                     * 
                *                                                         * 
                *                                                         * 
                *                       Abaqus 2025                       * 
                *                                                         * 
                *       BUILD ID: 2024_09_20-15.00.46 RELr427 198590      * 
                *                                                         * 
                *                                                         * 
                *  Please make sure you are using                         * 
                *  release Abaqus 2025 manuals                            * 
                *  plus the notes accompanying this release.              * 
                *                                                         * 
                *                                                         * 
                *                                                         * 
                *                                                         * 
                *                                                         * 
                *   This program may not be used for commercial purposes  * 
                *           without payment of a commercial fee.          * 
                *                                                         * 
                * * * * * * * * * * * * * * * * * * * * * * * * * * * * * * 


 



     PROCESSING PART, INSTANCE, AND ASSEMBLY INFORMATION
   *******************************************************


     END PROCESSING PART, INSTANCE, AND ASSEMBLY INFORMATION
   ***********************************************************




     OPTIONS BEING PROCESSED
   ***************************


  *Element, type=C3D8R
  *Elset, elset=ASSEMBLY_FINAL_PART-1__PICKEDSET26
  *Elset, elset=ASSEMBLY_FINAL_PART-1__PICKEDSET27
  *Elset, elset=ASSEMBLY__PICKEDSET47
  *Elset, elset=ASSEMBLY___PICKEDSURF45_S2
  *Elset, elset=ASSEMBLY___PICKEDSURF48_S2
  *heading
  *material, name=PLYWOOD_MATERIAL
  *density
  *elastic
  *material, name=TAPE_MATERIAL
  *density
  *elastic
  *solidsection, elset=ASSEMBLY_FINAL_PART-1__PICKEDSET26, material=TAPE_MATERIAL
  *solidsection, elset=ASSEMBLY_FINAL_PART-1__PICKEDSET27, material=PLYWOOD_MATERIAL
  *solidsection, elset=ASSEMBLY_FINAL_PART-1__PICKEDSET26, material=TAPE_MATERIAL
  *solidsection, elset=ASSEMBLY_FINAL_PART-1__PICKEDSET27, material=PLYWOOD_MATERIAL
  *surface, type=ELEMENT, name=ASSEMBLY__PICKEDSURF45
  *surface, type=ELEMENT, name=ASSEMBLY__PICKEDSURF48
  *surface, type=ELEMENT, name=ASSEMBLY__PICKEDSURF45
  *surface, type=ELEMENT, name=ASSEMBLY__PICKEDSURF48
  *boundary
  *boundary
  *surface, type=ELEMENT, name=ASSEMBLY__PICKEDSURF45
  *surface, type=ELEMENT, name=ASSEMBLY__PICKEDSURF48
  *output, field, variable=PRESELECT
  *output, history, variable=PRESELECT
  *output, field, variable=PRESELECT
  *output, history, variable=PRESELECT
  *output, field, variable=PRESELECT
  *output, history, variable=PRESELECT
  *step, name=Step-1, nlgeom=YES
  *step, name=Step-1, nlgeom=YES
  *output, field, variable=PRESELECT
  *output, history, variable=PRESELECT
  *step, name=Step-1, nlgeom=YES
  *step, name=Step-1, nlgeom=YES
  *static
  *boundary
  *dsload
  *dsload
  *output, field, variable=PRESELECT
  *output, history, variable=PRESELECT
  *endstep
  *step, name=Step-1, nlgeom=YES
  *static
  *boundary
  *endstep

     - (RAMP) OR (STEP) - INDICATE USE OF DEFAULT AMPLITUDES ASSOCIATED WITH THE STEP

     - (RAMP) OR (STEP) - INDICATE USE OF DEFAULT AMPLITUDES ASSOCIATED WITH THE STEP



                            P R O B L E M   S I Z E


          NUMBER OF ELEMENTS IS                                497182
          NUMBER OF NODES IS                                   592286
          NUMBER OF NODES DEFINED BY THE USER                  592286
          TOTAL NUMBER OF VARIABLES IN THE MODEL              1776858
          (DEGREES OF FREEDOM PLUS MAX NO. OF ANY LAGRANGE MULTIPLIER
           VARIABLES. INCLUDE *PRINT,SOLVE=YES TO GET THE ACTUAL NUMBER.)



                              END OF USER INPUT PROCESSING



     JOB TIME SUMMARY
       USER TIME (SEC)      =      40.    
       SYSTEM TIME (SEC)    =      3.1    
       TOTAL CPU TIME (SEC) =      44.    
       WALLCLOCK TIME (SEC) =           21
1

   Abaqus 2025                                  Date 22-Feb-2026   Time 21:37:44
   For use by UNIVERSITAET STUTTGART under license from Dassault Systemes or its subsidiary.

                                                                                               STEP    1  INCREMENT    1
                                                                                          TIME COMPLETED IN THIS STEP   0.00    


                        S T E P       1     S T A T I C   A N A L Y S I S


                                                                                          

     AUTOMATIC TIME CONTROL WITH -
          A SUGGESTED INITIAL TIME INCREMENT OF                 1.00    
          AND A TOTAL TIME PERIOD OF                            1.00    
          THE MINIMUM TIME INCREMENT ALLOWED IS                1.000E-05
          THE MAXIMUM TIME INCREMENT ALLOWED IS                 1.00    

     LINEAR EQUATION SOLVER TYPE         DIRECT SPARSE

          LARGE DISPLACEMENT THEORY WILL BE USED
  
                   M E M O R Y   E S T I M A T E
  
 PROCESS      FLOATING PT       MINIMUM MEMORY        MEMORY TO
              OPERATIONS           REQUIRED          MINIMIZE I/O
             PER ITERATION           (MB)               (MB)
  
     1          1.19E+12             1244              10405
  
 NOTE:
      (1) SINCE ABAQUS DOES NOT PRE-ALLOCATE MEMORY AND ONLY ALLOCATES MEMORY AS NEEDED DURING THE ANALYSIS,
          THE MEMORY REQUIREMENT PRINTED HERE CAN ONLY BE VIEWED AS A GENERAL GUIDELINE BASED ON THE BEST
          KNOWLEDGE AVAILABLE AT THE BEGINNING OF A STEP BEFORE THE SOLUTION PROCESS HAS BEGUN.
      (2) THE ESTIMATE IS NORMALLY UPDATED AT THE BEGINNING OF EVERY STEP. IT IS THE MAXIMUM VALUE OF THE
          ESTIMATE FROM THE CURRENT STEP TO THE LAST STEP OF THE ANALYSIS, WITH UNSYMMETRIC SOLUTION TAKEN
          INTO ACCOUNT IF APPLICABLE. 
      (3) SINCE THE ESTIMATE IS BASED ON THE ACTIVE DEGREES OF FREEDOM IN THE FIRST ITERATION OF THE 
          CURRENT STEP, THE MEMORY ESTIMATE MIGHT BE SIGNIFICANTLY DIFFERENT THAN ACTUAL USAGE FOR 
          PROBLEMS WITH SUBSTANTIAL CHANGES IN ACTIVE DEGREES OF FREEDOM BETWEEN STEPS (OR EVEN WITHIN
          THE SAME STEP). EXAMPLES ARE: PROBLEMS WITH SIGNIFICANT CONTACT CHANGES, PROBLEMS WITH MODEL
          CHANGE, PROBLEMS WITH BOTH STATIC STEP AND STEADY STATE DYNAMIC PROCEDURES WHERE ACOUSTIC 
          ELEMENTS WILL ONLY BE ACTIVATED IN THE STEADY STATE DYNAMIC STEPS.
      (4) FOR MULTI-PROCESS EXECUTION, THE ESTIMATED VALUE OF FLOATING POINT OPERATIONS FOR EACH PROCESS
          IS BASED ON AN INITIAL SCHEDULING OF OPERATIONS AND MIGHT NOT REFLECT THE ACTUAL FLOATING 
          POINT OPERATIONS COMPLETED ON EACH PROCESS. OPERATIONS ARE DYNAMICALLY BALANCED DURING EXECUTION, 
          SO THE ACTUAL BALANCE OF OPERATIONS BETWEEN PROCESSES IS EXPECTED TO BE BETTER THAN THE ESTIMATE
          PRINTED HERE.
      (5) THE UPPER LIMIT OF MEMORY THAT CAN BE ALLOCATED BY ABAQUS WILL IN GENERAL DEPEND ON THE VALUE OF
          THE "MEMORY" PARAMETER AND THE AMOUNT OF PHYSICAL MEMORY AVAILABLE ON THE MACHINE. PLEASE SEE
          THE "ABAQUS ANALYSIS USER'S MANUAL" FOR MORE DETAILS. THE ACTUAL USAGE OF MEMORY AND OF DISK
          SPACE FOR SCRATCH DATA WILL DEPEND ON THIS UPPER LIMIT AS WELL AS THE MEMORY REQUIRED TO MINIMIZE
          I/O. IF THE MEMORY UPPER LIMIT IS GREATER THAN THE MEMORY REQUIRED TO MINIMIZE I/O, THEN THE ACTUAL
          MEMORY USAGE WILL BE CLOSE TO THE ESTIMATED "MEMORY TO MINIMIZE I/O" VALUE, AND THE SCRATCH DISK
          USAGE WILL BE CLOSE-TO-ZERO; OTHERWISE, THE ACTUAL MEMORY USED WILL BE CLOSE TO THE PREVIOUSLY
          MENTIONED MEMORY LIMIT, AND THE SCRATCH DISK USAGE WILL BE ROUGHLY PROPORTIONAL TO THE DIFFERENCE
          BETWEEN THE ESTIMATED "MEMORY TO MINIMIZE I/O" AND THE MEMORY UPPER LIMIT. HOWEVER ACCURATE
          ESTIMATE OF THE SCRATCH DISK SPACE IS NOT POSSIBLE.
      (6) USING "*RESTART, WRITE" CAN GENERATE A LARGE AMOUNT OF DATA WRITTEN IN THE WORK DIRECTORY.



                              ANALYSIS COMPLETE
                              WITH      2 ERROR MESSAGES ON THE MSG FILE
                              AND      15 WARNING MESSAGES ON THE MSG FILE
                                       12 WARNINGS ARE FOR NEGATIVE EIGENVALUES



     JOB TIME SUMMARY
       USER TIME (SEC)      =     3.97E+04
       SYSTEM TIME (SEC)    =     7.47E+03
       TOTAL CPU TIME (SEC) =     4.72E+04
       WALLCLOCK TIME (SEC) =        63729
