 Abaqus/Standard 2025                  DATE 23-Feb-2026 TIME 14:46:58
 SUMMARY OF JOB INFORMATION:
 STEP  INC ATT SEVERE EQUIL TOTAL  TOTAL      STEP       INC OF       DOF    IF
               DISCON ITERS ITERS  TIME/    TIME/LPF    TIME/LPF    MONITOR RIKS
               ITERS               FREQ
   1     1   1U    0     2     2  0.00       0.00       1.000     
   1     1   2U    0     2     2  0.00       0.00       0.2500    
   1     1   3U    0     4     4  0.00       0.00       0.06250   
   1     1   4     0     8     8  0.0156     0.0156     0.01562   
   1     2   1     0     5     5  0.0312     0.0312     0.01562   
   1     3   1     0     4     4  0.0469     0.0469     0.01562   
   1     4   1     0     4     4  0.0625     0.0625     0.01562   
   1     5   1     0     5     5  0.0859     0.0859     0.02344   
   1     6   1     0     8     8  0.109      0.109      0.02344   
   1     7   1U    0     7     7  0.109      0.109      0.02344   
   1     7   2     0     4     4  0.115      0.115      0.005859  
   1     8   1     0     4     4  0.121      0.121      0.005859  
   1     9   1U    0     4     4  0.121      0.121      0.008789  
   1     9   2     0     4     4  0.123      0.123      0.002197  
   1    10   1     0     4     4  0.127      0.127      0.003296  
   1    11   1U    0     7     7  0.127      0.127      0.004944  
   1    11   2     0     4     4  0.128      0.128      0.001236  
   1    12   1U    0     5     5  0.128      0.128      0.001854  
   1    12   2     0     2     2  0.128      0.128      0.0004635 
   1    13   1     0     2     2  0.129      0.129      0.0006952 
   1    14   1U    0     4     4  0.129      0.129      0.001043  
   1    14   2     0     2     2  0.129      0.129      0.0002607 
   1    15   1U    0     5     5  0.129      0.129      0.0003911 
   1    15   2     0     2     2  0.129      0.129      9.777e-05 
   1    16   1     0     2     2  0.129      0.129      0.0001466 
   1    17   1     0     2     2  0.130      0.130      0.0002200 
   1    18   1U    0     6     6  0.130      0.130      0.0003300 
   1    18   2U    0     4     4  0.130      0.130      8.249e-05 
   1    18   3     0     4     4  0.130      0.130      2.062e-05 
   1    19   1     0     2     2  0.130      0.130      3.093e-05 
   1    20   1U    0     4     4  0.130      0.130      4.640e-05 
   1    20   2U    0     4     4  0.130      0.130      1.160e-05 
   1    20   3U    0     4     4  0.130      0.130      1.000e-05 
                          
 THE ANALYSIS HAS NOT BEEN COMPLETED
