 Abaqus/Standard 2025                  DATE 22-Feb-2026 TIME 15:25:37
 SUMMARY OF JOB INFORMATION:
 STEP  INC ATT SEVERE EQUIL TOTAL  TOTAL      STEP       INC OF       DOF    IF
               DISCON ITERS ITERS  TIME/    TIME/LPF    TIME/LPF    MONITOR RIKS
               ITERS               FREQ
   1     1   1U    0     2     2  0.00       0.00       1.000     
   1     1   2U    0     2     2  0.00       0.00       0.2500    
   1     1   3U    0     3     3  0.00       0.00       0.06250   
   1     1   4     0     9     9  0.0156     0.0156     0.01562   
   1     2   1     0     6     6  0.0312     0.0312     0.01562   
   1     3   1     0     6     6  0.0469     0.0469     0.01562   
   1     4   1     0     5     5  0.0625     0.0625     0.01562   
   1     5   1     0     4     4  0.0781     0.0781     0.01562   
   1     6   1     0     4     4  0.0938     0.0938     0.01562   
   1     7   1     0     4     4  0.117      0.117      0.02344   
   1     8   1     0     5     5  0.152      0.152      0.03516   
   1     9   1     0     5     5  0.188      0.188      0.03516   
   1    10   1     0     4     4  0.223      0.223      0.03516   
   1    11   1     0     7     7  0.258      0.258      0.03516   
   1    12   1     0     4     4  0.293      0.293      0.03516   
   1    13   1     0     4     4  0.328      0.328      0.03516   
   1    14   1     0     5     5  0.381      0.381      0.05273   
   1    15   1     0     5     5  0.434      0.434      0.05273   
   1    16   1     0     5     5  0.486      0.486      0.05273   
   1    17   1     0     5     5  0.539      0.539      0.05273   
   1    18   1     0     6     6  0.592      0.592      0.05273   
   1    19   1     0     6     6  0.645      0.645      0.05273   
   1    20   1     0     6     6  0.697      0.697      0.05273   
   1    21   1     0     6     6  0.750      0.750      0.05273   
   1    22   1     0     6     6  0.803      0.803      0.05273   
   1    23   1U    0     5     5  0.803      0.803      0.05273   
   1    23   2     0     4     4  0.816      0.816      0.01318   
   1    24   1     0     5     5  0.829      0.829      0.01318   
   1    25   1U    0     4     4  0.829      0.829      0.01318   
   1    25   2     0     2     2  0.832      0.832      0.003296  
   1    26   1     0     2     2  0.836      0.836      0.003296  
   1    27   1     0     2     2  0.841      0.841      0.004944  
   1    28   1     0     2     2  0.848      0.848      0.007416  
   1    29   1     0     3     3  0.859      0.859      0.01112   
   1    30   1     0     4     4  0.876      0.876      0.01669   
   1    31   1     0     4     4  0.901      0.901      0.02503   
   1    32   1     0     6     6  0.938      0.938      0.03754   
   1    33   1     0     4     4  0.976      0.976      0.03754   
   1    34   1     0     4     4  1.00       1.00       0.02402   
                          
 THE ANALYSIS HAS COMPLETED SUCCESSFULLY
