 Abaqus/Standard 2025                  DATE 23-Feb-2026 TIME 15:09:06
 SUMMARY OF JOB INFORMATION:
 STEP  INC ATT SEVERE EQUIL TOTAL  TOTAL      STEP       INC OF       DOF    IF
               DISCON ITERS ITERS  TIME/    TIME/LPF    TIME/LPF    MONITOR RIKS
               ITERS               FREQ
   1     1   1U    0     2     2  0.00       0.00       1.000     
   1     1   2U    0     2     2  0.00       0.00       0.2500    
   1     1   3U    0     9     9  0.00       0.00       0.06250   
   1     1   4     0     8     8  0.0312     0.0312     0.03125   
   1     2   1     0     5     5  0.0625     0.0625     0.03125   
   1     3   1     0     6     6  0.0938     0.0938     0.03125   
   1     4   1     0     9     9  0.125      0.125      0.03125   
   1     5   1U    0     4     4  0.125      0.125      0.03125   
   1     5   2U    0     5     5  0.125      0.125      0.007812  
   1     5   3     0     4     4  0.127      0.127      0.001953  
   1     6   1     0     2     2  0.129      0.129      0.001953  
   1     7   1     0     2     2  0.132      0.132      0.002930  
   1     8   1     0     4     4  0.136      0.136      0.004395  
   1     9   1U    0     4     4  0.136      0.136      0.006592  
   1     9   2     0     4     4  0.138      0.138      0.001648  
   1    10   1     0     4     4  0.140      0.140      0.002472  
   1    11   1U    0     7     7  0.140      0.140      0.003708  
   1    11   2     0     4     4  0.141      0.141      0.0009270 
   1    12   1U    0     4     4  0.141      0.141      0.001390  
   1    12   2     0     2     2  0.142      0.142      0.0003476 
   1    13   1U    0     5     5  0.142      0.142      0.0005214 
   1    13   2     0     2     2  0.142      0.142      0.0001304 
   1    14   1     0     2     2  0.142      0.142      0.0001955 
   1    15   1     0     2     2  0.142      0.142      0.0002933 
   1    16   1U    0     4     4  0.142      0.142      0.0004399 
   1    16   2     0     6     6  0.142      0.142      0.0001100 
   1    17   1     0     4     4  0.142      0.142      0.0001100 
   1    18   1U    0     5     5  0.142      0.142      0.0001100 
   1    18   2U    0     5     5  0.142      0.142      2.750e-05 
   1    18   3U    0     5     5  0.142      0.142      1.000e-05 
                          
 THE ANALYSIS HAS NOT BEEN COMPLETED
