1

   Abaqus 2025                                  Date 22-Feb-2026   Time 14:31:20
   For use by UNIVERSITAET STUTTGART under license from Dassault Systemes or its subsidiary.

                                                                                 
                                                                                 
 STEP    1     INCREMENT     1     STEP TIME    0.00    


                        S T E P       1     S T A T I C   A N A L Y S I S


                                                                                          

     AUTOMATIC TIME CONTROL WITH -
          A SUGGESTED INITIAL TIME INCREMENT OF                 1.00    
          AND A TOTAL TIME PERIOD OF                            1.00    
          THE MINIMUM TIME INCREMENT ALLOWED IS                1.000E-05
          THE MAXIMUM TIME INCREMENT ALLOWED IS                 1.00    

     LINEAR EQUATION SOLVER TYPE         DIRECT SPARSE

 CONVERGENCE TOLERANCE PARAMETERS FOR FORCE    
     CRITERION FOR RESIDUAL FORCE     FOR A NONLINEAR PROBLEM          5.000E-03
     CRITERION FOR DISP.    CORRECTION IN A NONLINEAR PROBLEM          1.000E-02
     INITIAL VALUE OF TIME AVERAGE FORCE                               1.000E-02
     AVERAGE FORCE     IS TIME AVERAGE FORCE    
     ALTERNATE CRIT. FOR RESIDUAL FORCE     FOR A NONLINEAR PROBLEM    2.000E-02
     CRITERION FOR ZERO FORCE     RELATIVE TO TIME AVRG. FORCE         1.000E-05
     CRITERION FOR RESIDUAL FORCE     WHEN THERE IS ZERO FLUX          1.000E-05
     CRITERION FOR DISP.    CORRECTION WHEN THERE IS ZERO FLUX         1.000E-03
     CRITERION FOR RESIDUAL FORCE     FOR A LINEAR INCREMENT           1.000E-08
     FIELD CONVERSION RATIO                                             1.00    
     CRITERION FOR ZERO FORCE     REL. TO TIME AVRG. MAX. FORCE        1.000E-05
     CRITERION FOR ZERO DISP.    RELATIVE TO CHARACTERISTIC LENGTH     1.000E-08

     VOLUMETRIC STRAIN COMPATIBILITY TOLERANCE FOR HYBRID SOLIDS       1.000E-05
     AXIAL STRAIN COMPATIBILITY TOLERANCE FOR HYBRID BEAMS             1.000E-05
     TRANS. SHEAR STRAIN COMPATIBILITY TOLERANCE FOR HYBRID BEAMS      1.000E-05
     SOFT CONTACT CONSTRAINT COMPATIBILITY TOLERANCE FOR P>P0          5.000E-03
     SOFT CONTACT CONSTRAINT COMPATIBILITY TOLERANCE FOR P=0.0         0.100    
     CONTACT FORCE ERROR TOLERANCE FOR CONVERT SDI=YES                 1.00    
     DISPLACEMENT COMPATIBILITY TOLERANCE FOR DCOUP ELEMENTS           1.000E-05
     ROTATION COMPATIBILITY TOLERANCE FOR DCOUP ELEMENTS               1.000E-05

 EQUILIBRIUM WILL BE CHECKED FOR SEVERE DISCONTINUITY ITERATIONS

 TIME INCREMENTATION CONTROL PARAMETERS:
     FIRST EQUILIBRIUM ITERATION FOR CONSECUTIVE DIVERGENCE CHECK              4
     EQUILIBRIUM ITERATION AT WHICH LOG. CONVERGENCE RATE CHECK BEGINS         8
     EQUILIBRIUM ITERATION AFTER WHICH ALTERNATE RESIDUAL IS USED              9
     MAXIMUM EQUILIBRIUM ITERATIONS ALLOWED                                   16
     EQUILIBRIUM ITERATION COUNT FOR CUT-BACK IN NEXT INCREMENT               10
     MAXIMUM EQUILIB. ITERS IN TWO INCREMENTS FOR TIME INCREMENT INCREASE      4
     MAXIMUM ITERATIONS FOR SEVERE DISCONTINUITIES                            50
     MAXIMUM ATTEMPTS ALLOWED IN AN INCREMENT                                  5
     MAXIMUM DISCON. ITERS IN TWO INCREMENTS FOR TIME INCREMENT INCREASE      50
     MAXIMUM CONTACT AUGMENTATIONS FOR *SURFACE BEHAVIOR,AUGMENTED LAGRANGE   50
     CUT-BACK FACTOR AFTER DIVERGENCE                                 0.2500    
     CUT-BACK FACTOR FOR TOO SLOW CONVERGENCE                         0.5000    
     CUT-BACK FACTOR AFTER TOO MANY EQUILIBRIUM ITERATIONS            0.7500    
     CUT-BACK FACTOR AFTER TOO MANY SEVERE DISCONTINUITY ITERATIONS   0.2500    
     CUT-BACK FACTOR AFTER PROBLEMS IN ELEMENT ASSEMBLY               0.2500    
     INCREASE FACTOR AFTER TWO INCREMENTS THAT CONVERGE QUICKLY        1.500    
     MAX. TIME INCREMENT INCREASE FACTOR ALLOWED                       1.500    
     MAX. TIME INCREMENT INCREASE FACTOR ALLOWED (DYNAMICS)            1.250    
     MAX. TIME INCREMENT INCREASE FACTOR ALLOWED (DIFFUSION)           2.000    
     MINIMUM TIME INCREMENT RATIO FOR EXTRAPOLATION TO OCCUR          0.1000    
     MAX. RATIO OF TIME INCREMENT TO STABILITY LIMIT                   1.000    
     FRACTION OF STABILITY LIMIT FOR NEW TIME INCREMENT               0.9500    
     TIME INCREMENT INCREASE FACTOR BEFORE A TIME POINT                1.000    
     GLOBAL STABILIZATION CONTROL IS NOT USED

          PRINT OF INCREMENT NUMBER, TIME, ETC., EVERY    1  INCREMENTS

     THE MAXIMUM NUMBER OF INCREMENTS IN THIS STEP IS                     100

          LARGE DISPLACEMENT THEORY WILL BE USED

     LINEAR EXTRAPOLATION WILL BE USED

     CHARACTERISTIC ELEMENT LENGTH     8.255E-04

     DETAILS REGARDING ACTUAL SOLUTION WAVEFRONT REQUESTED

     DETAILED OUTPUT OF DIAGNOSTICS TO DATABASE REQUESTED

     PRINT OF INCREMENT NUMBER, TIME, ETC., TO THE MESSAGE FILE EVERY     1  INCREMENTS

     COLLECTING MODEL CONSTRAINT INFORMATION FOR OVERCONSTRAINT CHECKS

     COLLECTING STEP CONSTRAINT INFORMATION FOR OVERCONSTRAINT CHECKS


  INCREMENT     1 STARTS. ATTEMPT NUMBER  1, TIME INCREMENT   1.00    
 
	SYMMETRIC PURE THREAD-BASED DIRECT SPARSE SOLVER RUNNING ON
 	1 HOST x 1 MPI RANK PER HOST x 1 THREAD PER RANK
        NUMBER OF EQUATIONS:  87720
        NUMBER OF RHS:        1
        NUMBER OF FLOPS:      5.701e+09
        SOLVER ELAPSED TIME:  215ms

               CONVERGENCE CHECKS FOR EQUILIBRIUM ITERATION     1


 AVERAGE FORCE                       238.       TIME AVG. FORCE        238.    
 LARGEST SCALED RESIDUAL FORCE     -5.465E+03   AT NODE      15246   DOF  3
   INSTANCE: FINAL_PART-1                                                                    
  CORRESPONDING RESIDUAL FORCE     -5.465E+03
 LARGEST INCREMENT OF DISP.        -4.022E-02   AT NODE        237   DOF  3
   INSTANCE: FINAL_PART-1                                                                    
 LARGEST CORRECTION TO DISP.       -4.022E-02   AT NODE        237   DOF  3
   INSTANCE: FINAL_PART-1                                                                    
          FORCE     EQUILIBRIUM NOT ACHIEVED WITHIN TOLERANCE.
 
	SYMMETRIC PURE THREAD-BASED DIRECT SPARSE SOLVER RUNNING ON
 	1 HOST x 1 MPI RANK PER HOST x 1 THREAD PER RANK
        NUMBER OF EQUATIONS:  87720
        NUMBER OF RHS:        1
        NUMBER OF FLOPS:      5.701e+09
        SOLVER ELAPSED TIME:  222ms
 

 ***WARNING: THE SYSTEM MATRIX HAS 1867 NEGATIVE EIGENVALUES.

     NEGATIVE EIGENVALUES MEAN THAT THE SYSTEM MATRIX IS NOT 
     POSITIVE DEFINITE:
     FOR EXAMPLE, A BIFURCATION (BUCKLING) LOAD MAY HAVE BEEN EXCEEDED.
   ELEMENT FINAL_PART-1.1 IS DISTORTING EXCESSIVELY.
   ELEMENT FINAL_PART-1.6 IS DISTORTING EXCESSIVELY.
   ELEMENT FINAL_PART-1.8 IS DISTORTING EXCESSIVELY.
   ELEMENT FINAL_PART-1.10 IS DISTORTING EXCESSIVELY.
   ELEMENT FINAL_PART-1.16 IS DISTORTING EXCESSIVELY.
   ELEMENT FINAL_PART-1.17 IS DISTORTING EXCESSIVELY.
   ELEMENT FINAL_PART-1.20 IS DISTORTING EXCESSIVELY.
   ELEMENT FINAL_PART-1.22 IS DISTORTING EXCESSIVELY.
   ELEMENT FINAL_PART-1.23 IS DISTORTING EXCESSIVELY.
   ELEMENT FINAL_PART-1.26 IS DISTORTING EXCESSIVELY.
   ELEMENT FINAL_PART-1.28 IS DISTORTING EXCESSIVELY.
   ELEMENT FINAL_PART-1.33 IS DISTORTING EXCESSIVELY.
   ELEMENT FINAL_PART-1.34 IS DISTORTING EXCESSIVELY.
   ELEMENT FINAL_PART-1.40 IS DISTORTING EXCESSIVELY.
   ELEMENT FINAL_PART-1.45 IS DISTORTING EXCESSIVELY.
   ELEMENT FINAL_PART-1.49 IS DISTORTING EXCESSIVELY.
   ELEMENT FINAL_PART-1.54 IS DISTORTING EXCESSIVELY.
   ELEMENT FINAL_PART-1.57 IS DISTORTING EXCESSIVELY.
   ELEMENT FINAL_PART-1.58 IS DISTORTING EXCESSIVELY.
   ELEMENT FINAL_PART-1.60 IS DISTORTING EXCESSIVELY.
   ELEMENT FINAL_PART-1.64 IS DISTORTING EXCESSIVELY.
   ELEMENT FINAL_PART-1.65 IS DISTORTING EXCESSIVELY.
   ELEMENT FINAL_PART-1.68 IS DISTORTING EXCESSIVELY.
   ELEMENT FINAL_PART-1.72 IS DISTORTING EXCESSIVELY.
   ELEMENT FINAL_PART-1.73 IS DISTORTING EXCESSIVELY.
   ELEMENT FINAL_PART-1.75 IS DISTORTING EXCESSIVELY.
   ELEMENT FINAL_PART-1.77 IS DISTORTING EXCESSIVELY.
   ELEMENT FINAL_PART-1.83 IS DISTORTING EXCESSIVELY.
   ELEMENT FINAL_PART-1.84 IS DISTORTING EXCESSIVELY.
   ELEMENT FINAL_PART-1.87 IS DISTORTING EXCESSIVELY.
   ELEMENT FINAL_PART-1.88 IS DISTORTING EXCESSIVELY.
   ELEMENT FINAL_PART-1.89 IS DISTORTING EXCESSIVELY.
   ELEMENT FINAL_PART-1.91 IS DISTORTING EXCESSIVELY.
   ELEMENT FINAL_PART-1.94 IS DISTORTING EXCESSIVELY.
   ELEMENT FINAL_PART-1.97 IS DISTORTING EXCESSIVELY.
   ELEMENT FINAL_PART-1.98 IS DISTORTING EXCESSIVELY.
   ELEMENT FINAL_PART-1.100 IS DISTORTING EXCESSIVELY.
   ELEMENT FINAL_PART-1.101 IS DISTORTING EXCESSIVELY.
   ELEMENT FINAL_PART-1.103 IS DISTORTING EXCESSIVELY.
   ELEMENT FINAL_PART-1.104 IS DISTORTING EXCESSIVELY.
   ELEMENT FINAL_PART-1.105 IS DISTORTING EXCESSIVELY.
   ELEMENT FINAL_PART-1.106 IS DISTORTING EXCESSIVELY.
   ELEMENT FINAL_PART-1.108 IS DISTORTING EXCESSIVELY.
   ELEMENT FINAL_PART-1.109 IS DISTORTING EXCESSIVELY.
   ELEMENT FINAL_PART-1.110 IS DISTORTING EXCESSIVELY.
   ELEMENT FINAL_PART-1.116 IS DISTORTING EXCESSIVELY.
   ELEMENT FINAL_PART-1.118 IS DISTORTING EXCESSIVELY.
   ELEMENT FINAL_PART-1.119 IS DISTORTING EXCESSIVELY.
   ELEMENT FINAL_PART-1.121 IS DISTORTING EXCESSIVELY.
   ELEMENT FINAL_PART-1.126 IS DISTORTING EXCESSIVELY.
   ELEMENT FINAL_PART-1.128 IS DISTORTING EXCESSIVELY.
   ELEMENT FINAL_PART-1.129 IS DISTORTING EXCESSIVELY.
   ELEMENT FINAL_PART-1.131 IS DISTORTING EXCESSIVELY.
   ELEMENT FINAL_PART-1.132 IS DISTORTING EXCESSIVELY.
   ELEMENT FINAL_PART-1.134 IS DISTORTING EXCESSIVELY.
   ELEMENT FINAL_PART-1.135 IS DISTORTING EXCESSIVELY.
   ELEMENT FINAL_PART-1.137 IS DISTORTING EXCESSIVELY.
   ELEMENT FINAL_PART-1.141 IS DISTORTING EXCESSIVELY.
   ELEMENT FINAL_PART-1.142 IS DISTORTING EXCESSIVELY.
   ELEMENT FINAL_PART-1.143 IS DISTORTING EXCESSIVELY.
   ELEMENT FINAL_PART-1.145 IS DISTORTING EXCESSIVELY.
   ELEMENT FINAL_PART-1.147 IS DISTORTING EXCESSIVELY.
   ELEMENT FINAL_PART-1.149 IS DISTORTING EXCESSIVELY.
   ELEMENT FINAL_PART-1.152 IS DISTORTING EXCESSIVELY.
   ELEMENT FINAL_PART-1.153 IS DISTORTING EXCESSIVELY.
   ELEMENT FINAL_PART-1.154 IS DISTORTING EXCESSIVELY.
   ELEMENT FINAL_PART-1.155 IS DISTORTING EXCESSIVELY.
   ELEMENT FINAL_PART-1.156 IS DISTORTING EXCESSIVELY.
   ELEMENT FINAL_PART-1.157 IS DISTORTING EXCESSIVELY.
   ELEMENT FINAL_PART-1.159 IS DISTORTING EXCESSIVELY.
   ELEMENT FINAL_PART-1.160 IS DISTORTING EXCESSIVELY.
   ELEMENT FINAL_PART-1.163 IS DISTORTING EXCESSIVELY.
   ELEMENT FINAL_PART-1.165 IS DISTORTING EXCESSIVELY.
   ELEMENT FINAL_PART-1.166 IS DISTORTING EXCESSIVELY.
   ELEMENT FINAL_PART-1.167 IS DISTORTING EXCESSIVELY.
   ELEMENT FINAL_PART-1.168 IS DISTORTING EXCESSIVELY.
   ELEMENT FINAL_PART-1.170 IS DISTORTING EXCESSIVELY.
   ELEMENT FINAL_PART-1.171 IS DISTORTING EXCESSIVELY.
   ELEMENT FINAL_PART-1.172 IS DISTORTING EXCESSIVELY.
   ELEMENT FINAL_PART-1.175 IS DISTORTING EXCESSIVELY.
   ELEMENT FINAL_PART-1.176 IS DISTORTING EXCESSIVELY.
   ELEMENT FINAL_PART-1.177 IS DISTORTING EXCESSIVELY.
   ELEMENT FINAL_PART-1.178 IS DISTORTING EXCESSIVELY.
   ELEMENT FINAL_PART-1.179 IS DISTORTING EXCESSIVELY.
   ELEMENT FINAL_PART-1.180 IS DISTORTING EXCESSIVELY.
   ELEMENT FINAL_PART-1.181 IS DISTORTING EXCESSIVELY.
   ELEMENT FINAL_PART-1.182 IS DISTORTING EXCESSIVELY.
   ELEMENT FINAL_PART-1.185 IS DISTORTING EXCESSIVELY.
   ELEMENT FINAL_PART-1.186 IS DISTORTING EXCESSIVELY.
   ELEMENT FINAL_PART-1.187 IS DISTORTING EXCESSIVELY.
   ELEMENT FINAL_PART-1.189 IS DISTORTING EXCESSIVELY.
   ELEMENT FINAL_PART-1.190 IS DISTORTING EXCESSIVELY.
   ELEMENT FINAL_PART-1.191 IS DISTORTING EXCESSIVELY.
   ELEMENT FINAL_PART-1.192 IS DISTORTING EXCESSIVELY.
   ELEMENT FINAL_PART-1.195 IS DISTORTING EXCESSIVELY.
   ELEMENT FINAL_PART-1.198 IS DISTORTING EXCESSIVELY.
   ELEMENT FINAL_PART-1.199 IS DISTORTING EXCESSIVELY.
   ELEMENT FINAL_PART-1.201 IS DISTORTING EXCESSIVELY.
   ELEMENT FINAL_PART-1.204 IS DISTORTING EXCESSIVELY.
   ELEMENT FINAL_PART-1.205 IS DISTORTING EXCESSIVELY.
   ELEMENT FINAL_PART-1.206 IS DISTORTING EXCESSIVELY.
   ELEMENT FINAL_PART-1.207 IS DISTORTING EXCESSIVELY.
   ELEMENT FINAL_PART-1.211 IS DISTORTING EXCESSIVELY.
   ELEMENT FINAL_PART-1.212 IS DISTORTING EXCESSIVELY.
   ELEMENT FINAL_PART-1.215 IS DISTORTING EXCESSIVELY.
   ELEMENT FINAL_PART-1.216 IS DISTORTING EXCESSIVELY.
   ELEMENT FINAL_PART-1.217 IS DISTORTING EXCESSIVELY.
   ELEMENT FINAL_PART-1.353 IS DISTORTING EXCESSIVELY.
   ELEMENT FINAL_PART-1.355 IS DISTORTING EXCESSIVELY.
   ELEMENT FINAL_PART-1.357 IS DISTORTING EXCESSIVELY.
   ELEMENT FINAL_PART-1.358 IS DISTORTING EXCESSIVELY.
   ELEMENT FINAL_PART-1.359 IS DISTORTING EXCESSIVELY.
   ELEMENT FINAL_PART-1.361 IS DISTORTING EXCESSIVELY.
   ELEMENT FINAL_PART-1.363 IS DISTORTING EXCESSIVELY.
   ELEMENT FINAL_PART-1.799 IS DISTORTING EXCESSIVELY.
   ELEMENT FINAL_PART-1.800 IS DISTORTING EXCESSIVELY.
   ELEMENT FINAL_PART-1.801 IS DISTORTING EXCESSIVELY.
   ELEMENT FINAL_PART-1.802 IS DISTORTING EXCESSIVELY.
   ELEMENT FINAL_PART-1.804 IS DISTORTING EXCESSIVELY.
   ELEMENT FINAL_PART-1.806 IS DISTORTING EXCESSIVELY.
   ELEMENT FINAL_PART-1.807 IS DISTORTING EXCESSIVELY.
   ELEMENT FINAL_PART-1.1614 IS DISTORTING EXCESSIVELY.
   ELEMENT FINAL_PART-1.1615 IS DISTORTING EXCESSIVELY.
   ELEMENT FINAL_PART-1.1616 IS DISTORTING EXCESSIVELY.
   ELEMENT FINAL_PART-1.1617 IS DISTORTING EXCESSIVELY.
   ELEMENT FINAL_PART-1.1618 IS DISTORTING EXCESSIVELY.
   ELEMENT FINAL_PART-1.1620 IS DISTORTING EXCESSIVELY.
   ELEMENT FINAL_PART-1.1621 IS DISTORTING EXCESSIVELY.
   ELEMENT FINAL_PART-1.1622 IS DISTORTING EXCESSIVELY.
   ELEMENT FINAL_PART-1.1624 IS DISTORTING EXCESSIVELY.
   ELEMENT FINAL_PART-1.1626 IS DISTORTING EXCESSIVELY.
   ELEMENT FINAL_PART-1.1628 IS DISTORTING EXCESSIVELY.
   ELEMENT FINAL_PART-1.1634 IS DISTORTING EXCESSIVELY.
   ELEMENT FINAL_PART-1.1635 IS DISTORTING EXCESSIVELY.
   ELEMENT FINAL_PART-1.1636 IS DISTORTING EXCESSIVELY.
   ELEMENT FINAL_PART-1.1637 IS DISTORTING EXCESSIVELY.
   ELEMENT FINAL_PART-1.1638 IS DISTORTING EXCESSIVELY.
   ELEMENT FINAL_PART-1.1639 IS DISTORTING EXCESSIVELY.
   ELEMENT FINAL_PART-1.1646 IS DISTORTING EXCESSIVELY.
   ELEMENT FINAL_PART-1.1647 IS DISTORTING EXCESSIVELY.
   ELEMENT FINAL_PART-1.1654 IS DISTORTING EXCESSIVELY.
   ELEMENT FINAL_PART-1.1671 IS DISTORTING EXCESSIVELY.
   ELEMENT FINAL_PART-1.1683 IS DISTORTING EXCESSIVELY.
   ELEMENT FINAL_PART-1.1689 IS DISTORTING EXCESSIVELY.
   ELEMENT FINAL_PART-1.1692 IS DISTORTING EXCESSIVELY.
   ELEMENT FINAL_PART-1.1695 IS DISTORTING EXCESSIVELY.
   ELEMENT FINAL_PART-1.1696 IS DISTORTING EXCESSIVELY.
   ELEMENT FINAL_PART-1.1698 IS DISTORTING EXCESSIVELY.
   ELEMENT FINAL_PART-1.1731 IS DISTORTING EXCESSIVELY.
   ELEMENT FINAL_PART-1.1738 IS DISTORTING EXCESSIVELY.
   ELEMENT FINAL_PART-1.1740 IS DISTORTING EXCESSIVELY.
   ELEMENT FINAL_PART-1.1743 IS DISTORTING EXCESSIVELY.
   ELEMENT FINAL_PART-1.1749 IS DISTORTING EXCESSIVELY.
   ELEMENT FINAL_PART-1.1761 IS DISTORTING EXCESSIVELY.
   ELEMENT FINAL_PART-1.1762 IS DISTORTING EXCESSIVELY.
   ELEMENT FINAL_PART-1.1767 IS DISTORTING EXCESSIVELY.
   ELEMENT FINAL_PART-1.1768 IS DISTORTING EXCESSIVELY.
   ELEMENT FINAL_PART-1.1786 IS DISTORTING EXCESSIVELY.
   ELEMENT FINAL_PART-1.1799 IS DISTORTING EXCESSIVELY.
   ELEMENT FINAL_PART-1.1819 IS DISTORTING EXCESSIVELY.
   ELEMENT FINAL_PART-1.1837 IS DISTORTING EXCESSIVELY.
   ELEMENT FINAL_PART-1.1847 IS DISTORTING EXCESSIVELY.
   ELEMENT FINAL_PART-1.1848 IS DISTORTING EXCESSIVELY.
   ELEMENT FINAL_PART-1.1849 IS DISTORTING EXCESSIVELY.
   ELEMENT FINAL_PART-1.1850 IS DISTORTING EXCESSIVELY.
   ELEMENT FINAL_PART-1.1851 IS DISTORTING EXCESSIVELY.
   ELEMENT FINAL_PART-1.1852 IS DISTORTING EXCESSIVELY.
   ELEMENT FINAL_PART-1.1853 IS DISTORTING EXCESSIVELY.
   ELEMENT FINAL_PART-1.1854 IS DISTORTING EXCESSIVELY.
   ELEMENT FINAL_PART-1.1855 IS DISTORTING EXCESSIVELY.
   ELEMENT FINAL_PART-1.1857 IS DISTORTING EXCESSIVELY.
   ELEMENT FINAL_PART-1.1858 IS DISTORTING EXCESSIVELY.
   ELEMENT FINAL_PART-1.1859 IS DISTORTING EXCESSIVELY.
   ELEMENT FINAL_PART-1.1860 IS DISTORTING EXCESSIVELY.
   ELEMENT FINAL_PART-1.1861 IS DISTORTING EXCESSIVELY.
   ELEMENT FINAL_PART-1.1862 IS DISTORTING EXCESSIVELY.
   ELEMENT FINAL_PART-1.1863 IS DISTORTING EXCESSIVELY.
   ELEMENT FINAL_PART-1.1864 IS DISTORTING EXCESSIVELY.
   ELEMENT FINAL_PART-1.1865 IS DISTORTING EXCESSIVELY.
   ELEMENT FINAL_PART-1.2068 IS DISTORTING EXCESSIVELY.
   ELEMENT FINAL_PART-1.2072 IS DISTORTING EXCESSIVELY.
   ELEMENT FINAL_PART-1.2074 IS DISTORTING EXCESSIVELY.
   ELEMENT FINAL_PART-1.2077 IS DISTORTING EXCESSIVELY.
   ELEMENT FINAL_PART-1.2078 IS DISTORTING EXCESSIVELY.
   ELEMENT FINAL_PART-1.2081 IS DISTORTING EXCESSIVELY.
   ELEMENT FINAL_PART-1.2083 IS DISTORTING EXCESSIVELY.
   ELEMENT FINAL_PART-1.2085 IS DISTORTING EXCESSIVELY.
   ELEMENT FINAL_PART-1.2290 IS DISTORTING EXCESSIVELY.
   ELEMENT FINAL_PART-1.2292 IS DISTORTING EXCESSIVELY.
   ELEMENT FINAL_PART-1.2294 IS DISTORTING EXCESSIVELY.
   ELEMENT FINAL_PART-1.2295 IS DISTORTING EXCESSIVELY.
   ELEMENT FINAL_PART-1.2298 IS DISTORTING EXCESSIVELY.
   ELEMENT FINAL_PART-1.2301 IS DISTORTING EXCESSIVELY.
   ELEMENT FINAL_PART-1.2302 IS DISTORTING EXCESSIVELY.
   ELEMENT FINAL_PART-1.2303 IS DISTORTING EXCESSIVELY.
   ELEMENT FINAL_PART-1.2305 IS DISTORTING EXCESSIVELY.
   ELEMENT FINAL_PART-1.2513 IS DISTORTING EXCESSIVELY.
   ELEMENT FINAL_PART-1.2976 IS DISTORTING EXCESSIVELY.
   ELEMENT FINAL_PART-1.2978 IS DISTORTING EXCESSIVELY.
   ELEMENT FINAL_PART-1.2980 IS DISTORTING EXCESSIVELY.
   ELEMENT FINAL_PART-1.2982 IS DISTORTING EXCESSIVELY.
   ELEMENT FINAL_PART-1.2984 IS DISTORTING EXCESSIVELY.
   ELEMENT FINAL_PART-1.2985 IS DISTORTING EXCESSIVELY.
   ELEMENT FINAL_PART-1.2986 IS DISTORTING EXCESSIVELY.
   ELEMENT FINAL_PART-1.2988 IS DISTORTING EXCESSIVELY.
   ELEMENT FINAL_PART-1.2989 IS DISTORTING EXCESSIVELY.
   ELEMENT FINAL_PART-1.2990 IS DISTORTING EXCESSIVELY.
   ELEMENT FINAL_PART-1.2991 IS DISTORTING EXCESSIVELY.
   ELEMENT FINAL_PART-1.2992 IS DISTORTING EXCESSIVELY.
   ELEMENT FINAL_PART-1.2996 IS DISTORTING EXCESSIVELY.
   ELEMENT FINAL_PART-1.2997 IS DISTORTING EXCESSIVELY.
   ELEMENT FINAL_PART-1.2998 IS DISTORTING EXCESSIVELY.
   ELEMENT FINAL_PART-1.3000 IS DISTORTING EXCESSIVELY.
   ELEMENT FINAL_PART-1.3001 IS DISTORTING EXCESSIVELY.
   ELEMENT FINAL_PART-1.3002 IS DISTORTING EXCESSIVELY.
   ELEMENT FINAL_PART-1.3003 IS DISTORTING EXCESSIVELY.
   ELEMENT FINAL_PART-1.3004 IS DISTORTING EXCESSIVELY.
   ELEMENT FINAL_PART-1.3005 IS DISTORTING EXCESSIVELY.
   ELEMENT FINAL_PART-1.3006 IS DISTORTING EXCESSIVELY.
   ELEMENT FINAL_PART-1.3008 IS DISTORTING EXCESSIVELY.
   ELEMENT FINAL_PART-1.3027 IS DISTORTING EXCESSIVELY.
   ELEMENT FINAL_PART-1.3029 IS DISTORTING EXCESSIVELY.
   ELEMENT FINAL_PART-1.3031 IS DISTORTING EXCESSIVELY.
   ELEMENT FINAL_PART-1.3032 IS DISTORTING EXCESSIVELY.
   ELEMENT FINAL_PART-1.3048 IS DISTORTING EXCESSIVELY.
   ELEMENT FINAL_PART-1.3050 IS DISTORTING EXCESSIVELY.
   ELEMENT FINAL_PART-1.3052 IS DISTORTING EXCESSIVELY.
   ELEMENT FINAL_PART-1.3055 IS DISTORTING EXCESSIVELY.
   ELEMENT FINAL_PART-1.3057 IS DISTORTING EXCESSIVELY.
   ELEMENT FINAL_PART-1.3058 IS DISTORTING EXCESSIVELY.
   ELEMENT FINAL_PART-1.3060 IS DISTORTING EXCESSIVELY.
   ELEMENT FINAL_PART-1.3061 IS DISTORTING EXCESSIVELY.
   ELEMENT FINAL_PART-1.3062 IS DISTORTING EXCESSIVELY.
   ELEMENT FINAL_PART-1.3063 IS DISTORTING EXCESSIVELY.
   ELEMENT FINAL_PART-1.3065 IS DISTORTING EXCESSIVELY.
   ELEMENT FINAL_PART-1.3066 IS DISTORTING EXCESSIVELY.
   ELEMENT FINAL_PART-1.3067 IS DISTORTING EXCESSIVELY.
   ELEMENT FINAL_PART-1.3069 IS DISTORTING EXCESSIVELY.
   ELEMENT FINAL_PART-1.3070 IS DISTORTING EXCESSIVELY.
   ELEMENT FINAL_PART-1.3071 IS DISTORTING EXCESSIVELY.
   ELEMENT FINAL_PART-1.3072 IS DISTORTING EXCESSIVELY.
   ELEMENT FINAL_PART-1.3073 IS DISTORTING EXCESSIVELY.
   ELEMENT FINAL_PART-1.3074 IS DISTORTING EXCESSIVELY.
   ELEMENT FINAL_PART-1.3075 IS DISTORTING EXCESSIVELY.
   ELEMENT FINAL_PART-1.3077 IS DISTORTING EXCESSIVELY.
   ELEMENT FINAL_PART-1.3079 IS DISTORTING EXCESSIVELY.
   ELEMENT FINAL_PART-1.3081 IS DISTORTING EXCESSIVELY.
   ELEMENT FINAL_PART-1.3082 IS DISTORTING EXCESSIVELY.
   ELEMENT FINAL_PART-1.3083 IS DISTORTING EXCESSIVELY.
   ELEMENT FINAL_PART-1.3084 IS DISTORTING EXCESSIVELY.
   ELEMENT FINAL_PART-1.3085 IS DISTORTING EXCESSIVELY.
   ELEMENT FINAL_PART-1.3087 IS DISTORTING EXCESSIVELY.
   ELEMENT FINAL_PART-1.3088 IS DISTORTING EXCESSIVELY.
   ELEMENT FINAL_PART-1.3089 IS DISTORTING EXCESSIVELY.
   ELEMENT FINAL_PART-1.3090 IS DISTORTING EXCESSIVELY.
   ELEMENT FINAL_PART-1.3091 IS DISTORTING EXCESSIVELY.
   ELEMENT FINAL_PART-1.3092 IS DISTORTING EXCESSIVELY.
   ELEMENT FINAL_PART-1.3093 IS DISTORTING EXCESSIVELY.
   ELEMENT FINAL_PART-1.3094 IS DISTORTING EXCESSIVELY.
   ELEMENT FINAL_PART-1.3095 IS DISTORTING EXCESSIVELY.
   ELEMENT FINAL_PART-1.3096 IS DISTORTING EXCESSIVELY.
   ELEMENT FINAL_PART-1.3097 IS DISTORTING EXCESSIVELY.
   ELEMENT FINAL_PART-1.3098 IS DISTORTING EXCESSIVELY.
   ELEMENT FINAL_PART-1.4454 IS DISTORTING EXCESSIVELY.
   ELEMENT FINAL_PART-1.4456 IS DISTORTING EXCESSIVELY.
   ELEMENT FINAL_PART-1.4457 IS DISTORTING EXCESSIVELY.
   ELEMENT FINAL_PART-1.4458 IS DISTORTING EXCESSIVELY.
   ELEMENT FINAL_PART-1.4461 IS DISTORTING EXCESSIVELY.
   ELEMENT FINAL_PART-1.4462 IS DISTORTING EXCESSIVELY.
   ELEMENT FINAL_PART-1.4464 IS DISTORTING EXCESSIVELY.
   ELEMENT FINAL_PART-1.4470 IS DISTORTING EXCESSIVELY.
   ELEMENT FINAL_PART-1.4471 IS DISTORTING EXCESSIVELY.
   ELEMENT FINAL_PART-1.4472 IS DISTORTING EXCESSIVELY.
   ELEMENT FINAL_PART-1.4475 IS DISTORTING EXCESSIVELY.
   ELEMENT FINAL_PART-1.4476 IS DISTORTING EXCESSIVELY.
   ELEMENT FINAL_PART-1.4477 IS DISTORTING EXCESSIVELY.
   ELEMENT FINAL_PART-1.4480 IS DISTORTING EXCESSIVELY.
   ELEMENT FINAL_PART-1.4482 IS DISTORTING EXCESSIVELY.
   ELEMENT FINAL_PART-1.4484 IS DISTORTING EXCESSIVELY.
   ELEMENT FINAL_PART-1.4486 IS DISTORTING EXCESSIVELY.
   ELEMENT FINAL_PART-1.4490 IS DISTORTING EXCESSIVELY.
   ELEMENT FINAL_PART-1.4491 IS DISTORTING EXCESSIVELY.
   ELEMENT FINAL_PART-1.4495 IS DISTORTING EXCESSIVELY.
   ELEMENT FINAL_PART-1.4498 IS DISTORTING EXCESSIVELY.
   ELEMENT FINAL_PART-1.4499 IS DISTORTING EXCESSIVELY.
   ELEMENT FINAL_PART-1.4503 IS DISTORTING EXCESSIVELY.
   ELEMENT FINAL_PART-1.4504 IS DISTORTING EXCESSIVELY.
   ELEMENT FINAL_PART-1.4505 IS DISTORTING EXCESSIVELY.
   ELEMENT FINAL_PART-1.4506 IS DISTORTING EXCESSIVELY.
   ELEMENT FINAL_PART-1.4508 IS DISTORTING EXCESSIVELY.
   ELEMENT FINAL_PART-1.4509 IS DISTORTING EXCESSIVELY.
   ELEMENT FINAL_PART-1.4510 IS DISTORTING EXCESSIVELY.
   ELEMENT FINAL_PART-1.4511 IS DISTORTING EXCESSIVELY.
   ELEMENT FINAL_PART-1.4521 IS DISTORTING EXCESSIVELY.
   ELEMENT FINAL_PART-1.4522 IS DISTORTING EXCESSIVELY.
   ELEMENT FINAL_PART-1.4523 IS DISTORTING EXCESSIVELY.
   ELEMENT FINAL_PART-1.4525 IS DISTORTING EXCESSIVELY.
   ELEMENT FINAL_PART-1.4528 IS DISTORTING EXCESSIVELY.
   ELEMENT FINAL_PART-1.4530 IS DISTORTING EXCESSIVELY.
   ELEMENT FINAL_PART-1.4531 IS DISTORTING EXCESSIVELY.
   ELEMENT FINAL_PART-1.4532 IS DISTORTING EXCESSIVELY.
   ELEMENT FINAL_PART-1.4535 IS DISTORTING EXCESSIVELY.
   ELEMENT FINAL_PART-1.4540 IS DISTORTING EXCESSIVELY.
   ELEMENT FINAL_PART-1.4541 IS DISTORTING EXCESSIVELY.
   ELEMENT FINAL_PART-1.4550 IS DISTORTING EXCESSIVELY.
   ELEMENT FINAL_PART-1.4551 IS DISTORTING EXCESSIVELY.
   ELEMENT FINAL_PART-1.4552 IS DISTORTING EXCESSIVELY.
   ELEMENT FINAL_PART-1.4556 IS DISTORTING EXCESSIVELY.
   ELEMENT FINAL_PART-1.4560 IS DISTORTING EXCESSIVELY.
   ELEMENT FINAL_PART-1.4562 IS DISTORTING EXCESSIVELY.
   ELEMENT FINAL_PART-1.4564 IS DISTORTING EXCESSIVELY.
   ELEMENT FINAL_PART-1.4569 IS DISTORTING EXCESSIVELY.
   ELEMENT FINAL_PART-1.4572 IS DISTORTING EXCESSIVELY.
   ELEMENT FINAL_PART-1.4582 IS DISTORTING EXCESSIVELY.
   ELEMENT FINAL_PART-1.4584 IS DISTORTING EXCESSIVELY.
   ELEMENT FINAL_PART-1.4588 IS DISTORTING EXCESSIVELY.
   ELEMENT FINAL_PART-1.4589 IS DISTORTING EXCESSIVELY.
   ELEMENT FINAL_PART-1.4593 IS DISTORTING EXCESSIVELY.
   ELEMENT FINAL_PART-1.4601 IS DISTORTING EXCESSIVELY.
   ELEMENT FINAL_PART-1.4602 IS DISTORTING EXCESSIVELY.
   ELEMENT FINAL_PART-1.4612 IS DISTORTING EXCESSIVELY.
   ELEMENT FINAL_PART-1.4617 IS DISTORTING EXCESSIVELY.
   ELEMENT FINAL_PART-1.4618 IS DISTORTING EXCESSIVELY.
   ELEMENT FINAL_PART-1.4621 IS DISTORTING EXCESSIVELY.
   ELEMENT FINAL_PART-1.4624 IS DISTORTING EXCESSIVELY.
   ELEMENT FINAL_PART-1.4632 IS DISTORTING EXCESSIVELY.
   ELEMENT FINAL_PART-1.4633 IS DISTORTING EXCESSIVELY.
   ELEMENT FINAL_PART-1.4639 IS DISTORTING EXCESSIVELY.
   ELEMENT FINAL_PART-1.4640 IS DISTORTING EXCESSIVELY.
   ELEMENT FINAL_PART-1.4641 IS DISTORTING EXCESSIVELY.
   ELEMENT FINAL_PART-1.4642 IS DISTORTING EXCESSIVELY.
   ELEMENT FINAL_PART-1.4645 IS DISTORTING EXCESSIVELY.
   ELEMENT FINAL_PART-1.4646 IS DISTORTING EXCESSIVELY.
   ELEMENT FINAL_PART-1.4649 IS DISTORTING EXCESSIVELY.
   ELEMENT FINAL_PART-1.4650 IS DISTORTING EXCESSIVELY.
   ELEMENT FINAL_PART-1.4660 IS DISTORTING EXCESSIVELY.
   ELEMENT FINAL_PART-1.4664 IS DISTORTING EXCESSIVELY.
   ELEMENT FINAL_PART-1.4665 IS DISTORTING EXCESSIVELY.
   ELEMENT FINAL_PART-1.4668 IS DISTORTING EXCESSIVELY.
   ELEMENT FINAL_PART-1.4671 IS DISTORTING EXCESSIVELY.
   ELEMENT FINAL_PART-1.4672 IS DISTORTING EXCESSIVELY.
   ELEMENT FINAL_PART-1.4673 IS DISTORTING EXCESSIVELY.
   ELEMENT FINAL_PART-1.4674 IS DISTORTING EXCESSIVELY.
   ELEMENT FINAL_PART-1.4683 IS DISTORTING EXCESSIVELY.
   ELEMENT FINAL_PART-1.4685 IS DISTORTING EXCESSIVELY.
   ELEMENT FINAL_PART-1.4687 IS DISTORTING EXCESSIVELY.
   ELEMENT FINAL_PART-1.4696 IS DISTORTING EXCESSIVELY.
   ELEMENT FINAL_PART-1.4700 IS DISTORTING EXCESSIVELY.
   ELEMENT FINAL_PART-1.4701 IS DISTORTING EXCESSIVELY.
   ELEMENT FINAL_PART-1.4705 IS DISTORTING EXCESSIVELY.
   ELEMENT FINAL_PART-1.4712 IS DISTORTING EXCESSIVELY.
   ELEMENT FINAL_PART-1.4713 IS DISTORTING EXCESSIVELY.
   ELEMENT FINAL_PART-1.4714 IS DISTORTING EXCESSIVELY.
   ELEMENT FINAL_PART-1.4724 IS DISTORTING EXCESSIVELY.
   ELEMENT FINAL_PART-1.4729 IS DISTORTING EXCESSIVELY.
   ELEMENT FINAL_PART-1.4733 IS DISTORTING EXCESSIVELY.
   ELEMENT FINAL_PART-1.4740 IS DISTORTING EXCESSIVELY.
   ELEMENT FINAL_PART-1.4746 IS DISTORTING EXCESSIVELY.
   ELEMENT FINAL_PART-1.4747 IS DISTORTING EXCESSIVELY.
   ELEMENT FINAL_PART-1.4751 IS DISTORTING EXCESSIVELY.
   ELEMENT FINAL_PART-1.4754 IS DISTORTING EXCESSIVELY.
   ELEMENT FINAL_PART-1.4758 IS DISTORTING EXCESSIVELY.
   ELEMENT FINAL_PART-1.4759 IS DISTORTING EXCESSIVELY.
   ELEMENT FINAL_PART-1.4764 IS DISTORTING EXCESSIVELY.
   ELEMENT FINAL_PART-1.4765 IS DISTORTING EXCESSIVELY.
   ELEMENT FINAL_PART-1.4766 IS DISTORTING EXCESSIVELY.
   ELEMENT FINAL_PART-1.4768 IS DISTORTING EXCESSIVELY.
   ELEMENT FINAL_PART-1.4769 IS DISTORTING EXCESSIVELY.
   ELEMENT FINAL_PART-1.4770 IS DISTORTING EXCESSIVELY.
   ELEMENT FINAL_PART-1.4772 IS DISTORTING EXCESSIVELY.
   ELEMENT FINAL_PART-1.4773 IS DISTORTING EXCESSIVELY.
   ELEMENT FINAL_PART-1.4775 IS DISTORTING EXCESSIVELY.
   ELEMENT FINAL_PART-1.4776 IS DISTORTING EXCESSIVELY.
   ELEMENT FINAL_PART-1.4779 IS DISTORTING EXCESSIVELY.
   ELEMENT FINAL_PART-1.4780 IS DISTORTING EXCESSIVELY.
   ELEMENT FINAL_PART-1.4783 IS DISTORTING EXCESSIVELY.
   ELEMENT FINAL_PART-1.4788 IS DISTORTING EXCESSIVELY.
   ELEMENT FINAL_PART-1.4792 IS DISTORTING EXCESSIVELY.
   ELEMENT FINAL_PART-1.4793 IS DISTORTING EXCESSIVELY.
   ELEMENT FINAL_PART-1.4794 IS DISTORTING EXCESSIVELY.
   ELEMENT FINAL_PART-1.4803 IS DISTORTING EXCESSIVELY.
   ELEMENT FINAL_PART-1.4804 IS DISTORTING EXCESSIVELY.
   ELEMENT FINAL_PART-1.4809 IS DISTORTING EXCESSIVELY.
   ELEMENT FINAL_PART-1.4818 IS DISTORTING EXCESSIVELY.
   ELEMENT FINAL_PART-1.4821 IS DISTORTING EXCESSIVELY.
   ELEMENT FINAL_PART-1.4823 IS DISTORTING EXCESSIVELY.
   ELEMENT FINAL_PART-1.4824 IS DISTORTING EXCESSIVELY.
   ELEMENT FINAL_PART-1.4826 IS DISTORTING EXCESSIVELY.
   ELEMENT FINAL_PART-1.4827 IS DISTORTING EXCESSIVELY.
   ELEMENT FINAL_PART-1.4835 IS DISTORTING EXCESSIVELY.
   ELEMENT FINAL_PART-1.4842 IS DISTORTING EXCESSIVELY.
   ELEMENT FINAL_PART-1.4843 IS DISTORTING EXCESSIVELY.
   ELEMENT FINAL_PART-1.4849 IS DISTORTING EXCESSIVELY.
   ELEMENT FINAL_PART-1.4850 IS DISTORTING EXCESSIVELY.
   ELEMENT FINAL_PART-1.4852 IS DISTORTING EXCESSIVELY.
   ELEMENT FINAL_PART-1.4855 IS DISTORTING EXCESSIVELY.
   ELEMENT FINAL_PART-1.4857 IS DISTORTING EXCESSIVELY.
   ELEMENT FINAL_PART-1.4867 IS DISTORTING EXCESSIVELY.
   ELEMENT FINAL_PART-1.4868 IS DISTORTING EXCESSIVELY.
   ELEMENT FINAL_PART-1.4869 IS DISTORTING EXCESSIVELY.
   ELEMENT FINAL_PART-1.4870 IS DISTORTING EXCESSIVELY.
   ELEMENT FINAL_PART-1.4871 IS DISTORTING EXCESSIVELY.
   ELEMENT FINAL_PART-1.4872 IS DISTORTING EXCESSIVELY.
   ELEMENT FINAL_PART-1.4873 IS DISTORTING EXCESSIVELY.
   ELEMENT FINAL_PART-1.4874 IS DISTORTING EXCESSIVELY.
   ELEMENT FINAL_PART-1.4876 IS DISTORTING EXCESSIVELY.
   ELEMENT FINAL_PART-1.4878 IS DISTORTING EXCESSIVELY.
   ELEMENT FINAL_PART-1.4879 IS DISTORTING EXCESSIVELY.
   ELEMENT FINAL_PART-1.4880 IS DISTORTING EXCESSIVELY.
   ELEMENT FINAL_PART-1.4881 IS DISTORTING EXCESSIVELY.
   ELEMENT FINAL_PART-1.4882 IS DISTORTING EXCESSIVELY.
   ELEMENT FINAL_PART-1.4883 IS DISTORTING EXCESSIVELY.
   ELEMENT FINAL_PART-1.4884 IS DISTORTING EXCESSIVELY.
   ELEMENT FINAL_PART-1.4885 IS DISTORTING EXCESSIVELY.
   ELEMENT FINAL_PART-1.4887 IS DISTORTING EXCESSIVELY.
   ELEMENT FINAL_PART-1.4889 IS DISTORTING EXCESSIVELY.
   ELEMENT FINAL_PART-1.4890 IS DISTORTING EXCESSIVELY.
   ELEMENT FINAL_PART-1.4891 IS DISTORTING EXCESSIVELY.
   ELEMENT FINAL_PART-1.4892 IS DISTORTING EXCESSIVELY.
   ELEMENT FINAL_PART-1.4905 IS DISTORTING EXCESSIVELY.
   ELEMENT FINAL_PART-1.4918 IS DISTORTING EXCESSIVELY.
   ELEMENT FINAL_PART-1.5139 IS DISTORTING EXCESSIVELY.
   ELEMENT FINAL_PART-1.5314 IS DISTORTING EXCESSIVELY.
   ELEMENT FINAL_PART-1.5316 IS DISTORTING EXCESSIVELY.
   ELEMENT FINAL_PART-1.5317 IS DISTORTING EXCESSIVELY.
   ELEMENT FINAL_PART-1.5318 IS DISTORTING EXCESSIVELY.
   ELEMENT FINAL_PART-1.5320 IS DISTORTING EXCESSIVELY.
   ELEMENT FINAL_PART-1.5324 IS DISTORTING EXCESSIVELY.
   ELEMENT FINAL_PART-1.5325 IS DISTORTING EXCESSIVELY.
   ELEMENT FINAL_PART-1.5330 IS DISTORTING EXCESSIVELY.
   ELEMENT FINAL_PART-1.5333 IS DISTORTING EXCESSIVELY.
   ELEMENT FINAL_PART-1.5337 IS DISTORTING EXCESSIVELY.
   ELEMENT FINAL_PART-1.5339 IS DISTORTING EXCESSIVELY.
   ELEMENT FINAL_PART-1.5401 IS DISTORTING EXCESSIVELY.
   ELEMENT FINAL_PART-1.5430 IS DISTORTING EXCESSIVELY.
   ELEMENT FINAL_PART-1.5432 IS DISTORTING EXCESSIVELY.
   ELEMENT FINAL_PART-1.5454 IS DISTORTING EXCESSIVELY.
   ELEMENT FINAL_PART-1.5467 IS DISTORTING EXCESSIVELY.
   ELEMENT FINAL_PART-1.5483 IS DISTORTING EXCESSIVELY.
   ELEMENT FINAL_PART-1.5535 IS DISTORTING EXCESSIVELY.
   ELEMENT FINAL_PART-1.5543 IS DISTORTING EXCESSIVELY.
   ELEMENT FINAL_PART-1.5586 IS DISTORTING EXCESSIVELY.
   ELEMENT FINAL_PART-1.5698 IS DISTORTING EXCESSIVELY.
   ELEMENT FINAL_PART-1.5758 IS DISTORTING EXCESSIVELY.
   ELEMENT FINAL_PART-1.5760 IS DISTORTING EXCESSIVELY.
   ELEMENT FINAL_PART-1.5762 IS DISTORTING EXCESSIVELY.
   ELEMENT FINAL_PART-1.5763 IS DISTORTING EXCESSIVELY.
   ELEMENT FINAL_PART-1.5764 IS DISTORTING EXCESSIVELY.
   ELEMENT FINAL_PART-1.5765 IS DISTORTING EXCESSIVELY.
   ELEMENT FINAL_PART-1.5766 IS DISTORTING EXCESSIVELY.
   ELEMENT FINAL_PART-1.5767 IS DISTORTING EXCESSIVELY.
   ELEMENT FINAL_PART-1.5768 IS DISTORTING EXCESSIVELY.
   ELEMENT FINAL_PART-1.5769 IS DISTORTING EXCESSIVELY.
   ELEMENT FINAL_PART-1.5770 IS DISTORTING EXCESSIVELY.
   ELEMENT FINAL_PART-1.5771 IS DISTORTING EXCESSIVELY.
   ELEMENT FINAL_PART-1.5774 IS DISTORTING EXCESSIVELY.
   ELEMENT FINAL_PART-1.5775 IS DISTORTING EXCESSIVELY.
   ELEMENT FINAL_PART-1.5776 IS DISTORTING EXCESSIVELY.
   ELEMENT FINAL_PART-1.5778 IS DISTORTING EXCESSIVELY.
   ELEMENT FINAL_PART-1.5780 IS DISTORTING EXCESSIVELY.
   ELEMENT FINAL_PART-1.5781 IS DISTORTING EXCESSIVELY.
   ELEMENT FINAL_PART-1.5782 IS DISTORTING EXCESSIVELY.
   ELEMENT FINAL_PART-1.5784 IS DISTORTING EXCESSIVELY.
   ELEMENT FINAL_PART-1.5785 IS DISTORTING EXCESSIVELY.
   ELEMENT FINAL_PART-1.5786 IS DISTORTING EXCESSIVELY.
   ELEMENT FINAL_PART-1.5790 IS DISTORTING EXCESSIVELY.
   ELEMENT FINAL_PART-1.5792 IS DISTORTING EXCESSIVELY.
   ELEMENT FINAL_PART-1.5793 IS DISTORTING EXCESSIVELY.
   ELEMENT FINAL_PART-1.5794 IS DISTORTING EXCESSIVELY.
   ELEMENT FINAL_PART-1.5795 IS DISTORTING EXCESSIVELY.
   ELEMENT FINAL_PART-1.5797 IS DISTORTING EXCESSIVELY.
   ELEMENT FINAL_PART-1.5799 IS DISTORTING EXCESSIVELY.
   ELEMENT FINAL_PART-1.5802 IS DISTORTING EXCESSIVELY.
   ELEMENT FINAL_PART-1.5804 IS DISTORTING EXCESSIVELY.
   ELEMENT FINAL_PART-1.5806 IS DISTORTING EXCESSIVELY.
   ELEMENT FINAL_PART-1.5807 IS DISTORTING EXCESSIVELY.
   ELEMENT FINAL_PART-1.5808 IS DISTORTING EXCESSIVELY.
   ELEMENT FINAL_PART-1.5810 IS DISTORTING EXCESSIVELY.
   ELEMENT FINAL_PART-1.5811 IS DISTORTING EXCESSIVELY.
   ELEMENT FINAL_PART-1.5812 IS DISTORTING EXCESSIVELY.
   ELEMENT FINAL_PART-1.5813 IS DISTORTING EXCESSIVELY.
   ELEMENT FINAL_PART-1.5817 IS DISTORTING EXCESSIVELY.
   ELEMENT FINAL_PART-1.5820 IS DISTORTING EXCESSIVELY.
   ELEMENT FINAL_PART-1.5821 IS DISTORTING EXCESSIVELY.
   ELEMENT FINAL_PART-1.5823 IS DISTORTING EXCESSIVELY.
   ELEMENT FINAL_PART-1.5825 IS DISTORTING EXCESSIVELY.
   ELEMENT FINAL_PART-1.5826 IS DISTORTING EXCESSIVELY.
   ELEMENT FINAL_PART-1.5828 IS DISTORTING EXCESSIVELY.
   ELEMENT FINAL_PART-1.5830 IS DISTORTING EXCESSIVELY.
   ELEMENT FINAL_PART-1.5831 IS DISTORTING EXCESSIVELY.
   ELEMENT FINAL_PART-1.5833 IS DISTORTING EXCESSIVELY.
   ELEMENT FINAL_PART-1.5837 IS DISTORTING EXCESSIVELY.
   ELEMENT FINAL_PART-1.5838 IS DISTORTING EXCESSIVELY.
   ELEMENT FINAL_PART-1.5842 IS DISTORTING EXCESSIVELY.
   ELEMENT FINAL_PART-1.5843 IS DISTORTING EXCESSIVELY.
   ELEMENT FINAL_PART-1.5845 IS DISTORTING EXCESSIVELY.
   ELEMENT FINAL_PART-1.5848 IS DISTORTING EXCESSIVELY.
   ELEMENT FINAL_PART-1.5849 IS DISTORTING EXCESSIVELY.
   ELEMENT FINAL_PART-1.5850 IS DISTORTING EXCESSIVELY.
   ELEMENT FINAL_PART-1.5851 IS DISTORTING EXCESSIVELY.
   ELEMENT FINAL_PART-1.5852 IS DISTORTING EXCESSIVELY.
   ELEMENT FINAL_PART-1.5855 IS DISTORTING EXCESSIVELY.
   ELEMENT FINAL_PART-1.5858 IS DISTORTING EXCESSIVELY.
   ELEMENT FINAL_PART-1.5859 IS DISTORTING EXCESSIVELY.
   ELEMENT FINAL_PART-1.5860 IS DISTORTING EXCESSIVELY.
   ELEMENT FINAL_PART-1.5861 IS DISTORTING EXCESSIVELY.
   ELEMENT FINAL_PART-1.5862 IS DISTORTING EXCESSIVELY.
   ELEMENT FINAL_PART-1.5863 IS DISTORTING EXCESSIVELY.
   ELEMENT FINAL_PART-1.5865 IS DISTORTING EXCESSIVELY.
   ELEMENT FINAL_PART-1.5866 IS DISTORTING EXCESSIVELY.
   ELEMENT FINAL_PART-1.5867 IS DISTORTING EXCESSIVELY.
   ELEMENT FINAL_PART-1.5868 IS DISTORTING EXCESSIVELY.
   ELEMENT FINAL_PART-1.5869 IS DISTORTING EXCESSIVELY.
   ELEMENT FINAL_PART-1.5871 IS DISTORTING EXCESSIVELY.
   ELEMENT FINAL_PART-1.5872 IS DISTORTING EXCESSIVELY.
   ELEMENT FINAL_PART-1.5873 IS DISTORTING EXCESSIVELY.
   ELEMENT FINAL_PART-1.5874 IS DISTORTING EXCESSIVELY.
   ELEMENT FINAL_PART-1.5880 IS DISTORTING EXCESSIVELY.
   ELEMENT FINAL_PART-1.5882 IS DISTORTING EXCESSIVELY.
   ELEMENT FINAL_PART-1.5884 IS DISTORTING EXCESSIVELY.
   ELEMENT FINAL_PART-1.5885 IS DISTORTING EXCESSIVELY.
   ELEMENT FINAL_PART-1.5886 IS DISTORTING EXCESSIVELY.
   ELEMENT FINAL_PART-1.5889 IS DISTORTING EXCESSIVELY.
   ELEMENT FINAL_PART-1.5890 IS DISTORTING EXCESSIVELY.
   ELEMENT FINAL_PART-1.5891 IS DISTORTING EXCESSIVELY.
   ELEMENT FINAL_PART-1.5894 IS DISTORTING EXCESSIVELY.
   ELEMENT FINAL_PART-1.5895 IS DISTORTING EXCESSIVELY.
   ELEMENT FINAL_PART-1.5896 IS DISTORTING EXCESSIVELY.
   ELEMENT FINAL_PART-1.5897 IS DISTORTING EXCESSIVELY.
   ELEMENT FINAL_PART-1.5898 IS DISTORTING EXCESSIVELY.
   ELEMENT FINAL_PART-1.5899 IS DISTORTING EXCESSIVELY.
   ELEMENT FINAL_PART-1.5900 IS DISTORTING EXCESSIVELY.
   ELEMENT FINAL_PART-1.5904 IS DISTORTING EXCESSIVELY.
   ELEMENT FINAL_PART-1.5905 IS DISTORTING EXCESSIVELY.
   ELEMENT FINAL_PART-1.5906 IS DISTORTING EXCESSIVELY.
   ELEMENT FINAL_PART-1.5907 IS DISTORTING EXCESSIVELY.
   ELEMENT FINAL_PART-1.5908 IS DISTORTING EXCESSIVELY.
   ELEMENT FINAL_PART-1.5912 IS DISTORTING EXCESSIVELY.
   ELEMENT FINAL_PART-1.5914 IS DISTORTING EXCESSIVELY.
   ELEMENT FINAL_PART-1.5916 IS DISTORTING EXCESSIVELY.
   ELEMENT FINAL_PART-1.5922 IS DISTORTING EXCESSIVELY.
   ELEMENT FINAL_PART-1.5923 IS DISTORTING EXCESSIVELY.
   ELEMENT FINAL_PART-1.5928 IS DISTORTING EXCESSIVELY.
   ELEMENT FINAL_PART-1.5929 IS DISTORTING EXCESSIVELY.
   ELEMENT FINAL_PART-1.5932 IS DISTORTING EXCESSIVELY.
   ELEMENT FINAL_PART-1.5933 IS DISTORTING EXCESSIVELY.
   ELEMENT FINAL_PART-1.5934 IS DISTORTING EXCESSIVELY.
   ELEMENT FINAL_PART-1.5937 IS DISTORTING EXCESSIVELY.
   ELEMENT FINAL_PART-1.5939 IS DISTORTING EXCESSIVELY.
   ELEMENT FINAL_PART-1.5940 IS DISTORTING EXCESSIVELY.
   ELEMENT FINAL_PART-1.5941 IS DISTORTING EXCESSIVELY.
   ELEMENT FINAL_PART-1.5942 IS DISTORTING EXCESSIVELY.
   ELEMENT FINAL_PART-1.5947 IS DISTORTING EXCESSIVELY.
   ELEMENT FINAL_PART-1.5949 IS DISTORTING EXCESSIVELY.
   ELEMENT FINAL_PART-1.5950 IS DISTORTING EXCESSIVELY.
   ELEMENT FINAL_PART-1.5953 IS DISTORTING EXCESSIVELY.
   ELEMENT FINAL_PART-1.5956 IS DISTORTING EXCESSIVELY.
   ELEMENT FINAL_PART-1.5957 IS DISTORTING EXCESSIVELY.
   ELEMENT FINAL_PART-1.5958 IS DISTORTING EXCESSIVELY.
   ELEMENT FINAL_PART-1.5961 IS DISTORTING EXCESSIVELY.
   ELEMENT FINAL_PART-1.5962 IS DISTORTING EXCESSIVELY.
   ELEMENT FINAL_PART-1.5965 IS DISTORTING EXCESSIVELY.
   ELEMENT FINAL_PART-1.5966 IS DISTORTING EXCESSIVELY.
   ELEMENT FINAL_PART-1.5967 IS DISTORTING EXCESSIVELY.
   ELEMENT FINAL_PART-1.5968 IS DISTORTING EXCESSIVELY.
   ELEMENT FINAL_PART-1.5969 IS DISTORTING EXCESSIVELY.
   ELEMENT FINAL_PART-1.5970 IS DISTORTING EXCESSIVELY.
   ELEMENT FINAL_PART-1.5972 IS DISTORTING EXCESSIVELY.
   ELEMENT FINAL_PART-1.5974 IS DISTORTING EXCESSIVELY.
   ELEMENT FINAL_PART-1.5976 IS DISTORTING EXCESSIVELY.
   ELEMENT FINAL_PART-1.5981 IS DISTORTING EXCESSIVELY.
   ELEMENT FINAL_PART-1.5982 IS DISTORTING EXCESSIVELY.
   ELEMENT FINAL_PART-1.5983 IS DISTORTING EXCESSIVELY.
   ELEMENT FINAL_PART-1.5984 IS DISTORTING EXCESSIVELY.
   ELEMENT FINAL_PART-1.5985 IS DISTORTING EXCESSIVELY.
   ELEMENT FINAL_PART-1.5986 IS DISTORTING EXCESSIVELY.
   ELEMENT FINAL_PART-1.5988 IS DISTORTING EXCESSIVELY.
   ELEMENT FINAL_PART-1.5990 IS DISTORTING EXCESSIVELY.
   ELEMENT FINAL_PART-1.5993 IS DISTORTING EXCESSIVELY.
   ELEMENT FINAL_PART-1.5994 IS DISTORTING EXCESSIVELY.
   ELEMENT FINAL_PART-1.5996 IS DISTORTING EXCESSIVELY.
   ELEMENT FINAL_PART-1.6001 IS DISTORTING EXCESSIVELY.
   ELEMENT FINAL_PART-1.6004 IS DISTORTING EXCESSIVELY.
   ELEMENT FINAL_PART-1.6006 IS DISTORTING EXCESSIVELY.
   ELEMENT FINAL_PART-1.6007 IS DISTORTING EXCESSIVELY.
   ELEMENT FINAL_PART-1.6009 IS DISTORTING EXCESSIVELY.
   ELEMENT FINAL_PART-1.6010 IS DISTORTING EXCESSIVELY.
   ELEMENT FINAL_PART-1.6011 IS DISTORTING EXCESSIVELY.
   ELEMENT FINAL_PART-1.6014 IS DISTORTING EXCESSIVELY.
   ELEMENT FINAL_PART-1.6019 IS DISTORTING EXCESSIVELY.
   ELEMENT FINAL_PART-1.6020 IS DISTORTING EXCESSIVELY.
   ELEMENT FINAL_PART-1.6025 IS DISTORTING EXCESSIVELY.
   ELEMENT FINAL_PART-1.6027 IS DISTORTING EXCESSIVELY.
   ELEMENT FINAL_PART-1.6028 IS DISTORTING EXCESSIVELY.
   ELEMENT FINAL_PART-1.6029 IS DISTORTING EXCESSIVELY.
   ELEMENT FINAL_PART-1.6033 IS DISTORTING EXCESSIVELY.
   ELEMENT FINAL_PART-1.6037 IS DISTORTING EXCESSIVELY.
   ELEMENT FINAL_PART-1.6038 IS DISTORTING EXCESSIVELY.
   ELEMENT FINAL_PART-1.6039 IS DISTORTING EXCESSIVELY.
   ELEMENT FINAL_PART-1.6040 IS DISTORTING EXCESSIVELY.
   ELEMENT FINAL_PART-1.6041 IS DISTORTING EXCESSIVELY.
   ELEMENT FINAL_PART-1.6043 IS DISTORTING EXCESSIVELY.
   ELEMENT FINAL_PART-1.6045 IS DISTORTING EXCESSIVELY.
   ELEMENT FINAL_PART-1.6046 IS DISTORTING EXCESSIVELY.
   ELEMENT FINAL_PART-1.6047 IS DISTORTING EXCESSIVELY.
   ELEMENT FINAL_PART-1.6049 IS DISTORTING EXCESSIVELY.
   ELEMENT FINAL_PART-1.6051 IS DISTORTING EXCESSIVELY.
   ELEMENT FINAL_PART-1.6052 IS DISTORTING EXCESSIVELY.
   ELEMENT FINAL_PART-1.6053 IS DISTORTING EXCESSIVELY.
   ELEMENT FINAL_PART-1.6054 IS DISTORTING EXCESSIVELY.
   ELEMENT FINAL_PART-1.6059 IS DISTORTING EXCESSIVELY.
   ELEMENT FINAL_PART-1.6060 IS DISTORTING EXCESSIVELY.
   ELEMENT FINAL_PART-1.6061 IS DISTORTING EXCESSIVELY.
   ELEMENT FINAL_PART-1.6062 IS DISTORTING EXCESSIVELY.
   ELEMENT FINAL_PART-1.6066 IS DISTORTING EXCESSIVELY.
   ELEMENT FINAL_PART-1.6067 IS DISTORTING EXCESSIVELY.
   ELEMENT FINAL_PART-1.6068 IS DISTORTING EXCESSIVELY.
   ELEMENT FINAL_PART-1.6070 IS DISTORTING EXCESSIVELY.
   ELEMENT FINAL_PART-1.6072 IS DISTORTING EXCESSIVELY.
   ELEMENT FINAL_PART-1.6073 IS DISTORTING EXCESSIVELY.
   ELEMENT FINAL_PART-1.6076 IS DISTORTING EXCESSIVELY.
   ELEMENT FINAL_PART-1.6077 IS DISTORTING EXCESSIVELY.
   ELEMENT FINAL_PART-1.6079 IS DISTORTING EXCESSIVELY.
   ELEMENT FINAL_PART-1.6081 IS DISTORTING EXCESSIVELY.
   ELEMENT FINAL_PART-1.6082 IS DISTORTING EXCESSIVELY.
   ELEMENT FINAL_PART-1.6083 IS DISTORTING EXCESSIVELY.
   ELEMENT FINAL_PART-1.6084 IS DISTORTING EXCESSIVELY.
   ELEMENT FINAL_PART-1.6085 IS DISTORTING EXCESSIVELY.
   ELEMENT FINAL_PART-1.6086 IS DISTORTING EXCESSIVELY.
   ELEMENT FINAL_PART-1.6087 IS DISTORTING EXCESSIVELY.
   ELEMENT FINAL_PART-1.6088 IS DISTORTING EXCESSIVELY.
   ELEMENT FINAL_PART-1.6091 IS DISTORTING EXCESSIVELY.
   ELEMENT FINAL_PART-1.6092 IS DISTORTING EXCESSIVELY.
   ELEMENT FINAL_PART-1.6093 IS DISTORTING EXCESSIVELY.
   ELEMENT FINAL_PART-1.6094 IS DISTORTING EXCESSIVELY.
   ELEMENT FINAL_PART-1.6100 IS DISTORTING EXCESSIVELY.
   ELEMENT FINAL_PART-1.6104 IS DISTORTING EXCESSIVELY.
   ELEMENT FINAL_PART-1.6105 IS DISTORTING EXCESSIVELY.
   ELEMENT FINAL_PART-1.6106 IS DISTORTING EXCESSIVELY.
   ELEMENT FINAL_PART-1.6111 IS DISTORTING EXCESSIVELY.
   ELEMENT FINAL_PART-1.6114 IS DISTORTING EXCESSIVELY.
   ELEMENT FINAL_PART-1.6116 IS DISTORTING EXCESSIVELY.
   ELEMENT FINAL_PART-1.6118 IS DISTORTING EXCESSIVELY.
   ELEMENT FINAL_PART-1.6121 IS DISTORTING EXCESSIVELY.
   ELEMENT FINAL_PART-1.6122 IS DISTORTING EXCESSIVELY.
   ELEMENT FINAL_PART-1.6124 IS DISTORTING EXCESSIVELY.
   ELEMENT FINAL_PART-1.6127 IS DISTORTING EXCESSIVELY.
   ELEMENT FINAL_PART-1.6128 IS DISTORTING EXCESSIVELY.
   ELEMENT FINAL_PART-1.6129 IS DISTORTING EXCESSIVELY.
   ELEMENT FINAL_PART-1.6130 IS DISTORTING EXCESSIVELY.
   ELEMENT FINAL_PART-1.6131 IS DISTORTING EXCESSIVELY.
   ELEMENT FINAL_PART-1.6134 IS DISTORTING EXCESSIVELY.
   ELEMENT FINAL_PART-1.6135 IS DISTORTING EXCESSIVELY.
   ELEMENT FINAL_PART-1.6136 IS DISTORTING EXCESSIVELY.
   ELEMENT FINAL_PART-1.6140 IS DISTORTING EXCESSIVELY.
   ELEMENT FINAL_PART-1.6141 IS DISTORTING EXCESSIVELY.
   ELEMENT FINAL_PART-1.6143 IS DISTORTING EXCESSIVELY.
   ELEMENT FINAL_PART-1.6144 IS DISTORTING EXCESSIVELY.
   ELEMENT FINAL_PART-1.6149 IS DISTORTING EXCESSIVELY.
   ELEMENT FINAL_PART-1.6150 IS DISTORTING EXCESSIVELY.
   ELEMENT FINAL_PART-1.6151 IS DISTORTING EXCESSIVELY.
   ELEMENT FINAL_PART-1.6152 IS DISTORTING EXCESSIVELY.
   ELEMENT FINAL_PART-1.6155 IS DISTORTING EXCESSIVELY.
   ELEMENT FINAL_PART-1.6158 IS DISTORTING EXCESSIVELY.
   ELEMENT FINAL_PART-1.6161 IS DISTORTING EXCESSIVELY.
   ELEMENT FINAL_PART-1.6165 IS DISTORTING EXCESSIVELY.
   ELEMENT FINAL_PART-1.6167 IS DISTORTING EXCESSIVELY.
   ELEMENT FINAL_PART-1.6168 IS DISTORTING EXCESSIVELY.
   ELEMENT FINAL_PART-1.6169 IS DISTORTING EXCESSIVELY.
   ELEMENT FINAL_PART-1.6170 IS DISTORTING EXCESSIVELY.
   ELEMENT FINAL_PART-1.6171 IS DISTORTING EXCESSIVELY.
   ELEMENT FINAL_PART-1.6174 IS DISTORTING EXCESSIVELY.
   ELEMENT FINAL_PART-1.6176 IS DISTORTING EXCESSIVELY.
   ELEMENT FINAL_PART-1.6178 IS DISTORTING EXCESSIVELY.
   ELEMENT FINAL_PART-1.6179 IS DISTORTING EXCESSIVELY.
   ELEMENT FINAL_PART-1.6180 IS DISTORTING EXCESSIVELY.
   ELEMENT FINAL_PART-1.6181 IS DISTORTING EXCESSIVELY.
   ELEMENT FINAL_PART-1.6183 IS DISTORTING EXCESSIVELY.
   ELEMENT FINAL_PART-1.6188 IS DISTORTING EXCESSIVELY.
   ELEMENT FINAL_PART-1.6192 IS DISTORTING EXCESSIVELY.
   ELEMENT FINAL_PART-1.6195 IS DISTORTING EXCESSIVELY.
   ELEMENT FINAL_PART-1.6197 IS DISTORTING EXCESSIVELY.
   ELEMENT FINAL_PART-1.6198 IS DISTORTING EXCESSIVELY.
   ELEMENT FINAL_PART-1.6201 IS DISTORTING EXCESSIVELY.
   ELEMENT FINAL_PART-1.6202 IS DISTORTING EXCESSIVELY.
   ELEMENT FINAL_PART-1.6204 IS DISTORTING EXCESSIVELY.
   ELEMENT FINAL_PART-1.6205 IS DISTORTING EXCESSIVELY.
   ELEMENT FINAL_PART-1.6206 IS DISTORTING EXCESSIVELY.
   ELEMENT FINAL_PART-1.6207 IS DISTORTING EXCESSIVELY.
   ELEMENT FINAL_PART-1.6209 IS DISTORTING EXCESSIVELY.
   ELEMENT FINAL_PART-1.6210 IS DISTORTING EXCESSIVELY.
   ELEMENT FINAL_PART-1.6212 IS DISTORTING EXCESSIVELY.
   ELEMENT FINAL_PART-1.6213 IS DISTORTING EXCESSIVELY.
   ELEMENT FINAL_PART-1.6214 IS DISTORTING EXCESSIVELY.
   ELEMENT FINAL_PART-1.6217 IS DISTORTING EXCESSIVELY.
   ELEMENT FINAL_PART-1.6218 IS DISTORTING EXCESSIVELY.
   ELEMENT FINAL_PART-1.6219 IS DISTORTING EXCESSIVELY.
   ELEMENT FINAL_PART-1.6220 IS DISTORTING EXCESSIVELY.
   ELEMENT FINAL_PART-1.6221 IS DISTORTING EXCESSIVELY.
   ELEMENT FINAL_PART-1.6224 IS DISTORTING EXCESSIVELY.
   ELEMENT FINAL_PART-1.6225 IS DISTORTING EXCESSIVELY.
   ELEMENT FINAL_PART-1.6226 IS DISTORTING EXCESSIVELY.
   ELEMENT FINAL_PART-1.6227 IS DISTORTING EXCESSIVELY.
   ELEMENT FINAL_PART-1.6228 IS DISTORTING EXCESSIVELY.
   ELEMENT FINAL_PART-1.6232 IS DISTORTING EXCESSIVELY.
   ELEMENT FINAL_PART-1.6235 IS DISTORTING EXCESSIVELY.
   ELEMENT FINAL_PART-1.6236 IS DISTORTING EXCESSIVELY.
   ELEMENT FINAL_PART-1.6239 IS DISTORTING EXCESSIVELY.
   ELEMENT FINAL_PART-1.6240 IS DISTORTING EXCESSIVELY.
   ELEMENT FINAL_PART-1.6242 IS DISTORTING EXCESSIVELY.
   ELEMENT FINAL_PART-1.6244 IS DISTORTING EXCESSIVELY.
   ELEMENT FINAL_PART-1.6245 IS DISTORTING EXCESSIVELY.
   ELEMENT FINAL_PART-1.6248 IS DISTORTING EXCESSIVELY.
   ELEMENT FINAL_PART-1.6249 IS DISTORTING EXCESSIVELY.
   ELEMENT FINAL_PART-1.6251 IS DISTORTING EXCESSIVELY.
   ELEMENT FINAL_PART-1.6252 IS DISTORTING EXCESSIVELY.
   ELEMENT FINAL_PART-1.6253 IS DISTORTING EXCESSIVELY.
   ELEMENT FINAL_PART-1.6257 IS DISTORTING EXCESSIVELY.
   ELEMENT FINAL_PART-1.6261 IS DISTORTING EXCESSIVELY.
   ELEMENT FINAL_PART-1.6262 IS DISTORTING EXCESSIVELY.
   ELEMENT FINAL_PART-1.6263 IS DISTORTING EXCESSIVELY.
   ELEMENT FINAL_PART-1.6264 IS DISTORTING EXCESSIVELY.
   ELEMENT FINAL_PART-1.6265 IS DISTORTING EXCESSIVELY.
   ELEMENT FINAL_PART-1.6274 IS DISTORTING EXCESSIVELY.
   ELEMENT FINAL_PART-1.6275 IS DISTORTING EXCESSIVELY.
   ELEMENT FINAL_PART-1.6277 IS DISTORTING EXCESSIVELY.
   ELEMENT FINAL_PART-1.6279 IS DISTORTING EXCESSIVELY.
   ELEMENT FINAL_PART-1.6280 IS DISTORTING EXCESSIVELY.
   ELEMENT FINAL_PART-1.6281 IS DISTORTING EXCESSIVELY.
   ELEMENT FINAL_PART-1.6282 IS DISTORTING EXCESSIVELY.
   ELEMENT FINAL_PART-1.6288 IS DISTORTING EXCESSIVELY.
   ELEMENT FINAL_PART-1.6289 IS DISTORTING EXCESSIVELY.
   ELEMENT FINAL_PART-1.6290 IS DISTORTING EXCESSIVELY.
   ELEMENT FINAL_PART-1.6291 IS DISTORTING EXCESSIVELY.
   ELEMENT FINAL_PART-1.6292 IS DISTORTING EXCESSIVELY.
   ELEMENT FINAL_PART-1.6294 IS DISTORTING EXCESSIVELY.
   ELEMENT FINAL_PART-1.6295 IS DISTORTING EXCESSIVELY.
   ELEMENT FINAL_PART-1.6296 IS DISTORTING EXCESSIVELY.
   ELEMENT FINAL_PART-1.6297 IS DISTORTING EXCESSIVELY.
   ELEMENT FINAL_PART-1.6299 IS DISTORTING EXCESSIVELY.
   ELEMENT FINAL_PART-1.6300 IS DISTORTING EXCESSIVELY.
   ELEMENT FINAL_PART-1.6301 IS DISTORTING EXCESSIVELY.
   ELEMENT FINAL_PART-1.6302 IS DISTORTING EXCESSIVELY.
   ELEMENT FINAL_PART-1.6305 IS DISTORTING EXCESSIVELY.
   ELEMENT FINAL_PART-1.6311 IS DISTORTING EXCESSIVELY.
   ELEMENT FINAL_PART-1.6312 IS DISTORTING EXCESSIVELY.
   ELEMENT FINAL_PART-1.6318 IS DISTORTING EXCESSIVELY.
   ELEMENT FINAL_PART-1.6320 IS DISTORTING EXCESSIVELY.
   ELEMENT FINAL_PART-1.6321 IS DISTORTING EXCESSIVELY.
   ELEMENT FINAL_PART-1.6322 IS DISTORTING EXCESSIVELY.
   ELEMENT FINAL_PART-1.6323 IS DISTORTING EXCESSIVELY.
   ELEMENT FINAL_PART-1.6324 IS DISTORTING EXCESSIVELY.
   ELEMENT FINAL_PART-1.6325 IS DISTORTING EXCESSIVELY.
   ELEMENT FINAL_PART-1.6329 IS DISTORTING EXCESSIVELY.
   ELEMENT FINAL_PART-1.6330 IS DISTORTING EXCESSIVELY.
   ELEMENT FINAL_PART-1.6331 IS DISTORTING EXCESSIVELY.
   ELEMENT FINAL_PART-1.6332 IS DISTORTING EXCESSIVELY.
   ELEMENT FINAL_PART-1.6333 IS DISTORTING EXCESSIVELY.
   ELEMENT FINAL_PART-1.6334 IS DISTORTING EXCESSIVELY.
   ELEMENT FINAL_PART-1.6335 IS DISTORTING EXCESSIVELY.
   ELEMENT FINAL_PART-1.6336 IS DISTORTING EXCESSIVELY.
   ELEMENT FINAL_PART-1.6337 IS DISTORTING EXCESSIVELY.
   ELEMENT FINAL_PART-1.6341 IS DISTORTING EXCESSIVELY.
   ELEMENT FINAL_PART-1.6345 IS DISTORTING EXCESSIVELY.
   ELEMENT FINAL_PART-1.6348 IS DISTORTING EXCESSIVELY.
   ELEMENT FINAL_PART-1.6349 IS DISTORTING EXCESSIVELY.
   ELEMENT FINAL_PART-1.6351 IS DISTORTING EXCESSIVELY.
   ELEMENT FINAL_PART-1.6352 IS DISTORTING EXCESSIVELY.
   ELEMENT FINAL_PART-1.6354 IS DISTORTING EXCESSIVELY.
   ELEMENT FINAL_PART-1.6355 IS DISTORTING EXCESSIVELY.
   ELEMENT FINAL_PART-1.6356 IS DISTORTING EXCESSIVELY.
   ELEMENT FINAL_PART-1.6358 IS DISTORTING EXCESSIVELY.
   ELEMENT FINAL_PART-1.6359 IS DISTORTING EXCESSIVELY.
   ELEMENT FINAL_PART-1.6363 IS DISTORTING EXCESSIVELY.
   ELEMENT FINAL_PART-1.6366 IS DISTORTING EXCESSIVELY.
   ELEMENT FINAL_PART-1.6369 IS DISTORTING EXCESSIVELY.
   ELEMENT FINAL_PART-1.6371 IS DISTORTING EXCESSIVELY.
   ELEMENT FINAL_PART-1.6372 IS DISTORTING EXCESSIVELY.
   ELEMENT FINAL_PART-1.6373 IS DISTORTING EXCESSIVELY.
   ELEMENT FINAL_PART-1.6375 IS DISTORTING EXCESSIVELY.
   ELEMENT FINAL_PART-1.6376 IS DISTORTING EXCESSIVELY.
   ELEMENT FINAL_PART-1.6378 IS DISTORTING EXCESSIVELY.
   ELEMENT FINAL_PART-1.6385 IS DISTORTING EXCESSIVELY.
   ELEMENT FINAL_PART-1.6386 IS DISTORTING EXCESSIVELY.
   ELEMENT FINAL_PART-1.6387 IS DISTORTING EXCESSIVELY.
   ELEMENT FINAL_PART-1.6391 IS DISTORTING EXCESSIVELY.
   ELEMENT FINAL_PART-1.6392 IS DISTORTING EXCESSIVELY.
   ELEMENT FINAL_PART-1.6394 IS DISTORTING EXCESSIVELY.
   ELEMENT FINAL_PART-1.6395 IS DISTORTING EXCESSIVELY.
   ELEMENT FINAL_PART-1.6396 IS DISTORTING EXCESSIVELY.
   ELEMENT FINAL_PART-1.6397 IS DISTORTING EXCESSIVELY.
   ELEMENT FINAL_PART-1.6399 IS DISTORTING EXCESSIVELY.
   ELEMENT FINAL_PART-1.6400 IS DISTORTING EXCESSIVELY.
   ELEMENT FINAL_PART-1.6404 IS DISTORTING EXCESSIVELY.
   ELEMENT FINAL_PART-1.6408 IS DISTORTING EXCESSIVELY.
   ELEMENT FINAL_PART-1.6410 IS DISTORTING EXCESSIVELY.
   ELEMENT FINAL_PART-1.6411 IS DISTORTING EXCESSIVELY.
   ELEMENT FINAL_PART-1.6412 IS DISTORTING EXCESSIVELY.
   ELEMENT FINAL_PART-1.6418 IS DISTORTING EXCESSIVELY.
   ELEMENT FINAL_PART-1.6419 IS DISTORTING EXCESSIVELY.
   ELEMENT FINAL_PART-1.6420 IS DISTORTING EXCESSIVELY.
   ELEMENT FINAL_PART-1.6425 IS DISTORTING EXCESSIVELY.
   ELEMENT FINAL_PART-1.6427 IS DISTORTING EXCESSIVELY.
   ELEMENT FINAL_PART-1.6428 IS DISTORTING EXCESSIVELY.
   ELEMENT FINAL_PART-1.6434 IS DISTORTING EXCESSIVELY.
   ELEMENT FINAL_PART-1.6437 IS DISTORTING EXCESSIVELY.
   ELEMENT FINAL_PART-1.6439 IS DISTORTING EXCESSIVELY.
   ELEMENT FINAL_PART-1.6440 IS DISTORTING EXCESSIVELY.
   ELEMENT FINAL_PART-1.6442 IS DISTORTING EXCESSIVELY.
   ELEMENT FINAL_PART-1.6443 IS DISTORTING EXCESSIVELY.
   ELEMENT FINAL_PART-1.6445 IS DISTORTING EXCESSIVELY.
   ELEMENT FINAL_PART-1.6446 IS DISTORTING EXCESSIVELY.
   ELEMENT FINAL_PART-1.6447 IS DISTORTING EXCESSIVELY.
   ELEMENT FINAL_PART-1.6451 IS DISTORTING EXCESSIVELY.
   ELEMENT FINAL_PART-1.6452 IS DISTORTING EXCESSIVELY.
   ELEMENT FINAL_PART-1.6453 IS DISTORTING EXCESSIVELY.
   ELEMENT FINAL_PART-1.6454 IS DISTORTING EXCESSIVELY.
   ELEMENT FINAL_PART-1.6456 IS DISTORTING EXCESSIVELY.
   ELEMENT FINAL_PART-1.6457 IS DISTORTING EXCESSIVELY.
   ELEMENT FINAL_PART-1.6459 IS DISTORTING EXCESSIVELY.
   ELEMENT FINAL_PART-1.6460 IS DISTORTING EXCESSIVELY.
   ELEMENT FINAL_PART-1.6461 IS DISTORTING EXCESSIVELY.
   ELEMENT FINAL_PART-1.6462 IS DISTORTING EXCESSIVELY.
   ELEMENT FINAL_PART-1.6464 IS DISTORTING EXCESSIVELY.
   ELEMENT FINAL_PART-1.6465 IS DISTORTING EXCESSIVELY.
   ELEMENT FINAL_PART-1.6466 IS DISTORTING EXCESSIVELY.
   ELEMENT FINAL_PART-1.6467 IS DISTORTING EXCESSIVELY.
   ELEMENT FINAL_PART-1.6468 IS DISTORTING EXCESSIVELY.
   ELEMENT FINAL_PART-1.6471 IS DISTORTING EXCESSIVELY.
   ELEMENT FINAL_PART-1.6473 IS DISTORTING EXCESSIVELY.
   ELEMENT FINAL_PART-1.6475 IS DISTORTING EXCESSIVELY.
   ELEMENT FINAL_PART-1.6476 IS DISTORTING EXCESSIVELY.
   ELEMENT FINAL_PART-1.6478 IS DISTORTING EXCESSIVELY.
   ELEMENT FINAL_PART-1.6479 IS DISTORTING EXCESSIVELY.
   ELEMENT FINAL_PART-1.6480 IS DISTORTING EXCESSIVELY.
   ELEMENT FINAL_PART-1.6481 IS DISTORTING EXCESSIVELY.
   ELEMENT FINAL_PART-1.6482 IS DISTORTING EXCESSIVELY.
   ELEMENT FINAL_PART-1.6483 IS DISTORTING EXCESSIVELY.
   ELEMENT FINAL_PART-1.6484 IS DISTORTING EXCESSIVELY.
   ELEMENT FINAL_PART-1.6485 IS DISTORTING EXCESSIVELY.
   ELEMENT FINAL_PART-1.6486 IS DISTORTING EXCESSIVELY.
   ELEMENT FINAL_PART-1.6487 IS DISTORTING EXCESSIVELY.
   ELEMENT FINAL_PART-1.6489 IS DISTORTING EXCESSIVELY.
   ELEMENT FINAL_PART-1.6490 IS DISTORTING EXCESSIVELY.
   ELEMENT FINAL_PART-1.6493 IS DISTORTING EXCESSIVELY.
   ELEMENT FINAL_PART-1.6494 IS DISTORTING EXCESSIVELY.
   ELEMENT FINAL_PART-1.6496 IS DISTORTING EXCESSIVELY.
   ELEMENT FINAL_PART-1.6497 IS DISTORTING EXCESSIVELY.
   ELEMENT FINAL_PART-1.6498 IS DISTORTING EXCESSIVELY.
   ELEMENT FINAL_PART-1.6499 IS DISTORTING EXCESSIVELY.
   ELEMENT FINAL_PART-1.6500 IS DISTORTING EXCESSIVELY.
   ELEMENT FINAL_PART-1.6501 IS DISTORTING EXCESSIVELY.
   ELEMENT FINAL_PART-1.6502 IS DISTORTING EXCESSIVELY.
   ELEMENT FINAL_PART-1.6503 IS DISTORTING EXCESSIVELY.
   ELEMENT FINAL_PART-1.6504 IS DISTORTING EXCESSIVELY.
   ELEMENT FINAL_PART-1.6505 IS DISTORTING EXCESSIVELY.
   ELEMENT FINAL_PART-1.6507 IS DISTORTING EXCESSIVELY.
   ELEMENT FINAL_PART-1.6509 IS DISTORTING EXCESSIVELY.
   ELEMENT FINAL_PART-1.6510 IS DISTORTING EXCESSIVELY.
   ELEMENT FINAL_PART-1.6512 IS DISTORTING EXCESSIVELY.
   ELEMENT FINAL_PART-1.6513 IS DISTORTING EXCESSIVELY.
   ELEMENT FINAL_PART-1.6517 IS DISTORTING EXCESSIVELY.
   ELEMENT FINAL_PART-1.6519 IS DISTORTING EXCESSIVELY.
   ELEMENT FINAL_PART-1.6522 IS DISTORTING EXCESSIVELY.
   ELEMENT FINAL_PART-1.6523 IS DISTORTING EXCESSIVELY.
   ELEMENT FINAL_PART-1.6524 IS DISTORTING EXCESSIVELY.
   ELEMENT FINAL_PART-1.6527 IS DISTORTING EXCESSIVELY.
   ELEMENT FINAL_PART-1.6530 IS DISTORTING EXCESSIVELY.
   ELEMENT FINAL_PART-1.6536 IS DISTORTING EXCESSIVELY.
   ELEMENT FINAL_PART-1.6541 IS DISTORTING EXCESSIVELY.
   ELEMENT FINAL_PART-1.6543 IS DISTORTING EXCESSIVELY.
   ELEMENT FINAL_PART-1.6545 IS DISTORTING EXCESSIVELY.
   ELEMENT FINAL_PART-1.6566 IS DISTORTING EXCESSIVELY.
   ELEMENT FINAL_PART-1.6569 IS DISTORTING EXCESSIVELY.
   ELEMENT FINAL_PART-1.6613 IS DISTORTING EXCESSIVELY.
   ELEMENT FINAL_PART-1.6625 IS DISTORTING EXCESSIVELY.
   ELEMENT FINAL_PART-1.6634 IS DISTORTING EXCESSIVELY.
   ELEMENT FINAL_PART-1.6638 IS DISTORTING EXCESSIVELY.
   ELEMENT FINAL_PART-1.6640 IS DISTORTING EXCESSIVELY.
   ELEMENT FINAL_PART-1.6641 IS DISTORTING EXCESSIVELY.
   ELEMENT FINAL_PART-1.6645 IS DISTORTING EXCESSIVELY.
   ELEMENT FINAL_PART-1.6652 IS DISTORTING EXCESSIVELY.
   ELEMENT FINAL_PART-1.6653 IS DISTORTING EXCESSIVELY.
   ELEMENT FINAL_PART-1.6654 IS DISTORTING EXCESSIVELY.
   ELEMENT FINAL_PART-1.6656 IS DISTORTING EXCESSIVELY.
   ELEMENT FINAL_PART-1.6678 IS DISTORTING EXCESSIVELY.
   ELEMENT FINAL_PART-1.6697 IS DISTORTING EXCESSIVELY.
   ELEMENT FINAL_PART-1.6703 IS DISTORTING EXCESSIVELY.
   ELEMENT FINAL_PART-1.6704 IS DISTORTING EXCESSIVELY.
   ELEMENT FINAL_PART-1.6706 IS DISTORTING EXCESSIVELY.
   ELEMENT FINAL_PART-1.6709 IS DISTORTING EXCESSIVELY.
   ELEMENT FINAL_PART-1.6737 IS DISTORTING EXCESSIVELY.
   ELEMENT FINAL_PART-1.6767 IS DISTORTING EXCESSIVELY.
   ELEMENT FINAL_PART-1.6771 IS DISTORTING EXCESSIVELY.
   ELEMENT FINAL_PART-1.6774 IS DISTORTING EXCESSIVELY.
   ELEMENT FINAL_PART-1.6811 IS DISTORTING EXCESSIVELY.
   ELEMENT FINAL_PART-1.6820 IS DISTORTING EXCESSIVELY.
   ELEMENT FINAL_PART-1.6821 IS DISTORTING EXCESSIVELY.
   ELEMENT FINAL_PART-1.6827 IS DISTORTING EXCESSIVELY.
   ELEMENT FINAL_PART-1.6830 IS DISTORTING EXCESSIVELY.
   ELEMENT FINAL_PART-1.6833 IS DISTORTING EXCESSIVELY.
   ELEMENT FINAL_PART-1.6836 IS DISTORTING EXCESSIVELY.
   ELEMENT FINAL_PART-1.6838 IS DISTORTING EXCESSIVELY.
   ELEMENT FINAL_PART-1.6842 IS DISTORTING EXCESSIVELY.
   ELEMENT FINAL_PART-1.6849 IS DISTORTING EXCESSIVELY.
   ELEMENT FINAL_PART-1.6851 IS DISTORTING EXCESSIVELY.
   ELEMENT FINAL_PART-1.6853 IS DISTORTING EXCESSIVELY.
   ELEMENT FINAL_PART-1.6874 IS DISTORTING EXCESSIVELY.
   ELEMENT FINAL_PART-1.6911 IS DISTORTING EXCESSIVELY.
   ELEMENT FINAL_PART-1.6980 IS DISTORTING EXCESSIVELY.
   ELEMENT FINAL_PART-1.6988 IS DISTORTING EXCESSIVELY.
   ELEMENT FINAL_PART-1.7000 IS DISTORTING EXCESSIVELY.
   ELEMENT FINAL_PART-1.7002 IS DISTORTING EXCESSIVELY.
   ELEMENT FINAL_PART-1.7003 IS DISTORTING EXCESSIVELY.
   ELEMENT FINAL_PART-1.7004 IS DISTORTING EXCESSIVELY.
   ELEMENT FINAL_PART-1.7061 IS DISTORTING EXCESSIVELY.
   ELEMENT FINAL_PART-1.7066 IS DISTORTING EXCESSIVELY.
   ELEMENT FINAL_PART-1.7087 IS DISTORTING EXCESSIVELY.
   ELEMENT FINAL_PART-1.7099 IS DISTORTING EXCESSIVELY.
   ELEMENT FINAL_PART-1.7132 IS DISTORTING EXCESSIVELY.
   ELEMENT FINAL_PART-1.7150 IS DISTORTING EXCESSIVELY.
   ELEMENT FINAL_PART-1.7155 IS DISTORTING EXCESSIVELY.
   ELEMENT FINAL_PART-1.7159 IS DISTORTING EXCESSIVELY.
   ELEMENT FINAL_PART-1.7160 IS DISTORTING EXCESSIVELY.
   ELEMENT FINAL_PART-1.7164 IS DISTORTING EXCESSIVELY.
   ELEMENT FINAL_PART-1.7166 IS DISTORTING EXCESSIVELY.
   ELEMENT FINAL_PART-1.7169 IS DISTORTING EXCESSIVELY.
   ELEMENT FINAL_PART-1.7175 IS DISTORTING EXCESSIVELY.
   ELEMENT FINAL_PART-1.7176 IS DISTORTING EXCESSIVELY.
   ELEMENT FINAL_PART-1.7177 IS DISTORTING EXCESSIVELY.
   ELEMENT FINAL_PART-1.7178 IS DISTORTING EXCESSIVELY.
   ELEMENT FINAL_PART-1.7179 IS DISTORTING EXCESSIVELY.
   ELEMENT FINAL_PART-1.7180 IS DISTORTING EXCESSIVELY.
   ELEMENT FINAL_PART-1.7181 IS DISTORTING EXCESSIVELY.
   ELEMENT FINAL_PART-1.7182 IS DISTORTING EXCESSIVELY.
   ELEMENT FINAL_PART-1.7184 IS DISTORTING EXCESSIVELY.
   ELEMENT FINAL_PART-1.7185 IS DISTORTING EXCESSIVELY.
   ELEMENT FINAL_PART-1.7187 IS DISTORTING EXCESSIVELY.
   ELEMENT FINAL_PART-1.7189 IS DISTORTING EXCESSIVELY.
   ELEMENT FINAL_PART-1.7191 IS DISTORTING EXCESSIVELY.
   ELEMENT FINAL_PART-1.7192 IS DISTORTING EXCESSIVELY.
   ELEMENT FINAL_PART-1.7195 IS DISTORTING EXCESSIVELY.
   ELEMENT FINAL_PART-1.7196 IS DISTORTING EXCESSIVELY.
   ELEMENT FINAL_PART-1.7198 IS DISTORTING EXCESSIVELY.
   ELEMENT FINAL_PART-1.7201 IS DISTORTING EXCESSIVELY.
   ELEMENT FINAL_PART-1.7202 IS DISTORTING EXCESSIVELY.
   ELEMENT FINAL_PART-1.7213 IS DISTORTING EXCESSIVELY.
   ELEMENT FINAL_PART-1.7231 IS DISTORTING EXCESSIVELY.
   ELEMENT FINAL_PART-1.7232 IS DISTORTING EXCESSIVELY.
   ELEMENT FINAL_PART-1.7237 IS DISTORTING EXCESSIVELY.
   ELEMENT FINAL_PART-1.7243 IS DISTORTING EXCESSIVELY.
   ELEMENT FINAL_PART-1.7244 IS DISTORTING EXCESSIVELY.
   ELEMENT FINAL_PART-1.7247 IS DISTORTING EXCESSIVELY.
   ELEMENT FINAL_PART-1.7254 IS DISTORTING EXCESSIVELY.
   ELEMENT FINAL_PART-1.7255 IS DISTORTING EXCESSIVELY.
   ELEMENT FINAL_PART-1.7296 IS DISTORTING EXCESSIVELY.
   ELEMENT FINAL_PART-1.7304 IS DISTORTING EXCESSIVELY.
   ELEMENT FINAL_PART-1.7305 IS DISTORTING EXCESSIVELY.
   ELEMENT FINAL_PART-1.7308 IS DISTORTING EXCESSIVELY.
   ELEMENT FINAL_PART-1.7310 IS DISTORTING EXCESSIVELY.
   ELEMENT FINAL_PART-1.7313 IS DISTORTING EXCESSIVELY.
   ELEMENT FINAL_PART-1.7319 IS DISTORTING EXCESSIVELY.
   ELEMENT FINAL_PART-1.7320 IS DISTORTING EXCESSIVELY.
   ELEMENT FINAL_PART-1.7322 IS DISTORTING EXCESSIVELY.
   ELEMENT FINAL_PART-1.7324 IS DISTORTING EXCESSIVELY.
   ELEMENT FINAL_PART-1.7325 IS DISTORTING EXCESSIVELY.
   ELEMENT FINAL_PART-1.7326 IS DISTORTING EXCESSIVELY.
   ELEMENT FINAL_PART-1.7327 IS DISTORTING EXCESSIVELY.
   ELEMENT FINAL_PART-1.7328 IS DISTORTING EXCESSIVELY.
   ELEMENT FINAL_PART-1.7330 IS DISTORTING EXCESSIVELY.
   ELEMENT FINAL_PART-1.7335 IS DISTORTING EXCESSIVELY.
   ELEMENT FINAL_PART-1.7344 IS DISTORTING EXCESSIVELY.
   ELEMENT FINAL_PART-1.7347 IS DISTORTING EXCESSIVELY.
   ELEMENT FINAL_PART-1.7348 IS DISTORTING EXCESSIVELY.
   ELEMENT FINAL_PART-1.7349 IS DISTORTING EXCESSIVELY.
   ELEMENT FINAL_PART-1.7350 IS DISTORTING EXCESSIVELY.
   ELEMENT FINAL_PART-1.7354 IS DISTORTING EXCESSIVELY.
   ELEMENT FINAL_PART-1.7360 IS DISTORTING EXCESSIVELY.
   ELEMENT FINAL_PART-1.7361 IS DISTORTING EXCESSIVELY.
   ELEMENT FINAL_PART-1.7363 IS DISTORTING EXCESSIVELY.
   ELEMENT FINAL_PART-1.7364 IS DISTORTING EXCESSIVELY.
   ELEMENT FINAL_PART-1.7367 IS DISTORTING EXCESSIVELY.
   ELEMENT FINAL_PART-1.7370 IS DISTORTING EXCESSIVELY.
   ELEMENT FINAL_PART-1.7371 IS DISTORTING EXCESSIVELY.
   ELEMENT FINAL_PART-1.7372 IS DISTORTING EXCESSIVELY.
   ELEMENT FINAL_PART-1.7374 IS DISTORTING EXCESSIVELY.
   ELEMENT FINAL_PART-1.7377 IS DISTORTING EXCESSIVELY.
   ELEMENT FINAL_PART-1.7382 IS DISTORTING EXCESSIVELY.
   ELEMENT FINAL_PART-1.7387 IS DISTORTING EXCESSIVELY.
   ELEMENT FINAL_PART-1.7392 IS DISTORTING EXCESSIVELY.
   ELEMENT FINAL_PART-1.7394 IS DISTORTING EXCESSIVELY.
   ELEMENT FINAL_PART-1.7407 IS DISTORTING EXCESSIVELY.
   ELEMENT FINAL_PART-1.7408 IS DISTORTING EXCESSIVELY.
   ELEMENT FINAL_PART-1.7410 IS DISTORTING EXCESSIVELY.
   ELEMENT FINAL_PART-1.7412 IS DISTORTING EXCESSIVELY.
   ELEMENT FINAL_PART-1.7417 IS DISTORTING EXCESSIVELY.
   ELEMENT FINAL_PART-1.7428 IS DISTORTING EXCESSIVELY.
   ELEMENT FINAL_PART-1.7441 IS DISTORTING EXCESSIVELY.
   ELEMENT FINAL_PART-1.7443 IS DISTORTING EXCESSIVELY.
   ELEMENT FINAL_PART-1.7444 IS DISTORTING EXCESSIVELY.
   ELEMENT FINAL_PART-1.7445 IS DISTORTING EXCESSIVELY.
   ELEMENT FINAL_PART-1.7446 IS DISTORTING EXCESSIVELY.
   ELEMENT FINAL_PART-1.7448 IS DISTORTING EXCESSIVELY.
   ELEMENT FINAL_PART-1.7456 IS DISTORTING EXCESSIVELY.
   ELEMENT FINAL_PART-1.7459 IS DISTORTING EXCESSIVELY.
   ELEMENT FINAL_PART-1.7469 IS DISTORTING EXCESSIVELY.
   ELEMENT FINAL_PART-1.7471 IS DISTORTING EXCESSIVELY.
   ELEMENT FINAL_PART-1.7481 IS DISTORTING EXCESSIVELY.
   ELEMENT FINAL_PART-1.7485 IS DISTORTING EXCESSIVELY.
   ELEMENT FINAL_PART-1.7489 IS DISTORTING EXCESSIVELY.
   ELEMENT FINAL_PART-1.7490 IS DISTORTING EXCESSIVELY.
   ELEMENT FINAL_PART-1.7491 IS DISTORTING EXCESSIVELY.
   ELEMENT FINAL_PART-1.7497 IS DISTORTING EXCESSIVELY.
   ELEMENT FINAL_PART-1.7498 IS DISTORTING EXCESSIVELY.
   ELEMENT FINAL_PART-1.7500 IS DISTORTING EXCESSIVELY.
   ELEMENT FINAL_PART-1.7503 IS DISTORTING EXCESSIVELY.
   ELEMENT FINAL_PART-1.7504 IS DISTORTING EXCESSIVELY.
   ELEMENT FINAL_PART-1.7505 IS DISTORTING EXCESSIVELY.
   ELEMENT FINAL_PART-1.7506 IS DISTORTING EXCESSIVELY.
   ELEMENT FINAL_PART-1.7507 IS DISTORTING EXCESSIVELY.
   ELEMENT FINAL_PART-1.7508 IS DISTORTING EXCESSIVELY.
   ELEMENT FINAL_PART-1.7509 IS DISTORTING EXCESSIVELY.
   ELEMENT FINAL_PART-1.7513 IS DISTORTING EXCESSIVELY.
   ELEMENT FINAL_PART-1.7515 IS DISTORTING EXCESSIVELY.
   ELEMENT FINAL_PART-1.7519 IS DISTORTING EXCESSIVELY.
   ELEMENT FINAL_PART-1.7520 IS DISTORTING EXCESSIVELY.
   ELEMENT FINAL_PART-1.7521 IS DISTORTING EXCESSIVELY.
   ELEMENT FINAL_PART-1.7542 IS DISTORTING EXCESSIVELY.
   ELEMENT FINAL_PART-1.7544 IS DISTORTING EXCESSIVELY.
   ELEMENT FINAL_PART-1.7546 IS DISTORTING EXCESSIVELY.
   ELEMENT FINAL_PART-1.7550 IS DISTORTING EXCESSIVELY.
   ELEMENT FINAL_PART-1.7554 IS DISTORTING EXCESSIVELY.
   ELEMENT FINAL_PART-1.7556 IS DISTORTING EXCESSIVELY.
   ELEMENT FINAL_PART-1.7576 IS DISTORTING EXCESSIVELY.
   ELEMENT FINAL_PART-1.7581 IS DISTORTING EXCESSIVELY.
   ELEMENT FINAL_PART-1.7586 IS DISTORTING EXCESSIVELY.
   ELEMENT FINAL_PART-1.7589 IS DISTORTING EXCESSIVELY.
   ELEMENT FINAL_PART-1.7591 IS DISTORTING EXCESSIVELY.
   ELEMENT FINAL_PART-1.7622 IS DISTORTING EXCESSIVELY.
   ELEMENT FINAL_PART-1.7625 IS DISTORTING EXCESSIVELY.
   ELEMENT FINAL_PART-1.7629 IS DISTORTING EXCESSIVELY.
   ELEMENT FINAL_PART-1.7631 IS DISTORTING EXCESSIVELY.
   ELEMENT FINAL_PART-1.7632 IS DISTORTING EXCESSIVELY.
   ELEMENT FINAL_PART-1.7633 IS DISTORTING EXCESSIVELY.
   ELEMENT FINAL_PART-1.7635 IS DISTORTING EXCESSIVELY.
   ELEMENT FINAL_PART-1.7636 IS DISTORTING EXCESSIVELY.
   ELEMENT FINAL_PART-1.7637 IS DISTORTING EXCESSIVELY.
   ELEMENT FINAL_PART-1.7639 IS DISTORTING EXCESSIVELY.
   ELEMENT FINAL_PART-1.7641 IS DISTORTING EXCESSIVELY.
   ELEMENT FINAL_PART-1.7644 IS DISTORTING EXCESSIVELY.
   ELEMENT FINAL_PART-1.7645 IS DISTORTING EXCESSIVELY.
   ELEMENT FINAL_PART-1.7658 IS DISTORTING EXCESSIVELY.
   ELEMENT FINAL_PART-1.7669 IS DISTORTING EXCESSIVELY.
   ELEMENT FINAL_PART-1.7672 IS DISTORTING EXCESSIVELY.
   ELEMENT FINAL_PART-1.7673 IS DISTORTING EXCESSIVELY.
   ELEMENT FINAL_PART-1.7677 IS DISTORTING EXCESSIVELY.
   ELEMENT FINAL_PART-1.7694 IS DISTORTING EXCESSIVELY.
   ELEMENT FINAL_PART-1.7699 IS DISTORTING EXCESSIVELY.
   ELEMENT FINAL_PART-1.7702 IS DISTORTING EXCESSIVELY.
   ELEMENT FINAL_PART-1.7703 IS DISTORTING EXCESSIVELY.
   ELEMENT FINAL_PART-1.7705 IS DISTORTING EXCESSIVELY.
   ELEMENT FINAL_PART-1.7707 IS DISTORTING EXCESSIVELY.
   ELEMENT FINAL_PART-1.7709 IS DISTORTING EXCESSIVELY.
   ELEMENT FINAL_PART-1.7712 IS DISTORTING EXCESSIVELY.
   ELEMENT FINAL_PART-1.7714 IS DISTORTING EXCESSIVELY.
   ELEMENT FINAL_PART-1.7718 IS DISTORTING EXCESSIVELY.
   ELEMENT FINAL_PART-1.7725 IS DISTORTING EXCESSIVELY.
   ELEMENT FINAL_PART-1.7726 IS DISTORTING EXCESSIVELY.
   ELEMENT FINAL_PART-1.7727 IS DISTORTING EXCESSIVELY.
   ELEMENT FINAL_PART-1.7734 IS DISTORTING EXCESSIVELY.
   ELEMENT FINAL_PART-1.7735 IS DISTORTING EXCESSIVELY.
   ELEMENT FINAL_PART-1.7740 IS DISTORTING EXCESSIVELY.
   ELEMENT FINAL_PART-1.7743 IS DISTORTING EXCESSIVELY.
   ELEMENT FINAL_PART-1.7745 IS DISTORTING EXCESSIVELY.
   ELEMENT FINAL_PART-1.7748 IS DISTORTING EXCESSIVELY.
   ELEMENT FINAL_PART-1.7757 IS DISTORTING EXCESSIVELY.
   ELEMENT FINAL_PART-1.7760 IS DISTORTING EXCESSIVELY.
   ELEMENT FINAL_PART-1.7762 IS DISTORTING EXCESSIVELY.
   ELEMENT FINAL_PART-1.7768 IS DISTORTING EXCESSIVELY.
   ELEMENT FINAL_PART-1.7770 IS DISTORTING EXCESSIVELY.
   ELEMENT FINAL_PART-1.7772 IS DISTORTING EXCESSIVELY.
   ELEMENT FINAL_PART-1.7782 IS DISTORTING EXCESSIVELY.
   ELEMENT FINAL_PART-1.7783 IS DISTORTING EXCESSIVELY.
   ELEMENT FINAL_PART-1.7787 IS DISTORTING EXCESSIVELY.
   ELEMENT FINAL_PART-1.7800 IS DISTORTING EXCESSIVELY.
   ELEMENT FINAL_PART-1.7802 IS DISTORTING EXCESSIVELY.
   ELEMENT FINAL_PART-1.7806 IS DISTORTING EXCESSIVELY.
   ELEMENT FINAL_PART-1.7807 IS DISTORTING EXCESSIVELY.
   ELEMENT FINAL_PART-1.7814 IS DISTORTING EXCESSIVELY.
   ELEMENT FINAL_PART-1.7819 IS DISTORTING EXCESSIVELY.
   ELEMENT FINAL_PART-1.7821 IS DISTORTING EXCESSIVELY.
   ELEMENT FINAL_PART-1.7822 IS DISTORTING EXCESSIVELY.
   ELEMENT FINAL_PART-1.7823 IS DISTORTING EXCESSIVELY.
   ELEMENT FINAL_PART-1.7824 IS DISTORTING EXCESSIVELY.
   ELEMENT FINAL_PART-1.7826 IS DISTORTING EXCESSIVELY.
   ELEMENT FINAL_PART-1.7827 IS DISTORTING EXCESSIVELY.
   ELEMENT FINAL_PART-1.7829 IS DISTORTING EXCESSIVELY.
   ELEMENT FINAL_PART-1.7830 IS DISTORTING EXCESSIVELY.
   ELEMENT FINAL_PART-1.7831 IS DISTORTING EXCESSIVELY.
   ELEMENT FINAL_PART-1.7833 IS DISTORTING EXCESSIVELY.
   ELEMENT FINAL_PART-1.7839 IS DISTORTING EXCESSIVELY.
   ELEMENT FINAL_PART-1.7840 IS DISTORTING EXCESSIVELY.
   ELEMENT FINAL_PART-1.7841 IS DISTORTING EXCESSIVELY.
   ELEMENT FINAL_PART-1.7846 IS DISTORTING EXCESSIVELY.
   ELEMENT FINAL_PART-1.7847 IS DISTORTING EXCESSIVELY.
   ELEMENT FINAL_PART-1.7848 IS DISTORTING EXCESSIVELY.
   ELEMENT FINAL_PART-1.7850 IS DISTORTING EXCESSIVELY.
   ELEMENT FINAL_PART-1.7851 IS DISTORTING EXCESSIVELY.
   ELEMENT FINAL_PART-1.7852 IS DISTORTING EXCESSIVELY.
   ELEMENT FINAL_PART-1.7853 IS DISTORTING EXCESSIVELY.
   ELEMENT FINAL_PART-1.9753 IS DISTORTING EXCESSIVELY.
   ELEMENT FINAL_PART-1.9812 IS DISTORTING EXCESSIVELY.
   ELEMENT FINAL_PART-1.9845 IS DISTORTING EXCESSIVELY.
   ELEMENT FINAL_PART-1.9847 IS DISTORTING EXCESSIVELY.
   ELEMENT FINAL_PART-1.9849 IS DISTORTING EXCESSIVELY.
   ELEMENT FINAL_PART-1.9882 IS DISTORTING EXCESSIVELY.
   ELEMENT FINAL_PART-1.9884 IS DISTORTING EXCESSIVELY.
   ELEMENT FINAL_PART-1.9886 IS DISTORTING EXCESSIVELY.
   ELEMENT FINAL_PART-1.14614 IS DISTORTING EXCESSIVELY.
   ELEMENT FINAL_PART-1.14617 IS DISTORTING EXCESSIVELY.
   ELEMENT FINAL_PART-1.14618 IS DISTORTING EXCESSIVELY.
   ELEMENT FINAL_PART-1.14619 IS DISTORTING EXCESSIVELY.
   ELEMENT FINAL_PART-1.14620 IS DISTORTING EXCESSIVELY.
   ELEMENT FINAL_PART-1.14621 IS DISTORTING EXCESSIVELY.
   ELEMENT FINAL_PART-1.14622 IS DISTORTING EXCESSIVELY.
   ELEMENT FINAL_PART-1.14626 IS DISTORTING EXCESSIVELY.
   ELEMENT FINAL_PART-1.14628 IS DISTORTING EXCESSIVELY.
   ELEMENT FINAL_PART-1.14629 IS DISTORTING EXCESSIVELY.
   ELEMENT FINAL_PART-1.14630 IS DISTORTING EXCESSIVELY.
   ELEMENT FINAL_PART-1.14631 IS DISTORTING EXCESSIVELY.
   ELEMENT FINAL_PART-1.14632 IS DISTORTING EXCESSIVELY.
   ELEMENT FINAL_PART-1.14635 IS DISTORTING EXCESSIVELY.
   ELEMENT FINAL_PART-1.14642 IS DISTORTING EXCESSIVELY.
   ELEMENT FINAL_PART-1.14643 IS DISTORTING EXCESSIVELY.
   ELEMENT FINAL_PART-1.14645 IS DISTORTING EXCESSIVELY.
   ELEMENT FINAL_PART-1.14646 IS DISTORTING EXCESSIVELY.
   ELEMENT FINAL_PART-1.14648 IS DISTORTING EXCESSIVELY.
   ELEMENT FINAL_PART-1.14649 IS DISTORTING EXCESSIVELY.
   ELEMENT FINAL_PART-1.14651 IS DISTORTING EXCESSIVELY.
   ELEMENT FINAL_PART-1.14653 IS DISTORTING EXCESSIVELY.
   ELEMENT FINAL_PART-1.14654 IS DISTORTING EXCESSIVELY.
   ELEMENT FINAL_PART-1.14655 IS DISTORTING EXCESSIVELY.
   ELEMENT FINAL_PART-1.14656 IS DISTORTING EXCESSIVELY.
   ELEMENT FINAL_PART-1.14659 IS DISTORTING EXCESSIVELY.
   ELEMENT FINAL_PART-1.14660 IS DISTORTING EXCESSIVELY.
   ELEMENT FINAL_PART-1.14661 IS DISTORTING EXCESSIVELY.
   ELEMENT FINAL_PART-1.14662 IS DISTORTING EXCESSIVELY.
   ELEMENT FINAL_PART-1.14664 IS DISTORTING EXCESSIVELY.
   ELEMENT FINAL_PART-1.14665 IS DISTORTING EXCESSIVELY.
   ELEMENT FINAL_PART-1.14666 IS DISTORTING EXCESSIVELY.
   ELEMENT FINAL_PART-1.14667 IS DISTORTING EXCESSIVELY.
   ELEMENT FINAL_PART-1.14668 IS DISTORTING EXCESSIVELY.
   ELEMENT FINAL_PART-1.14669 IS DISTORTING EXCESSIVELY.
   ELEMENT FINAL_PART-1.14670 IS DISTORTING EXCESSIVELY.
   ELEMENT FINAL_PART-1.14672 IS DISTORTING EXCESSIVELY.
   ELEMENT FINAL_PART-1.14673 IS DISTORTING EXCESSIVELY.
   ELEMENT FINAL_PART-1.14674 IS DISTORTING EXCESSIVELY.
   ELEMENT FINAL_PART-1.14675 IS DISTORTING EXCESSIVELY.
   ELEMENT FINAL_PART-1.14676 IS DISTORTING EXCESSIVELY.
   ELEMENT FINAL_PART-1.14677 IS DISTORTING EXCESSIVELY.
   ELEMENT FINAL_PART-1.14678 IS DISTORTING EXCESSIVELY.
   ELEMENT FINAL_PART-1.14684 IS DISTORTING EXCESSIVELY.
   ELEMENT FINAL_PART-1.14685 IS DISTORTING EXCESSIVELY.
   ELEMENT FINAL_PART-1.14687 IS DISTORTING EXCESSIVELY.
   ELEMENT FINAL_PART-1.14692 IS DISTORTING EXCESSIVELY.
   ELEMENT FINAL_PART-1.14693 IS DISTORTING EXCESSIVELY.
   ELEMENT FINAL_PART-1.14694 IS DISTORTING EXCESSIVELY.
   ELEMENT FINAL_PART-1.14695 IS DISTORTING EXCESSIVELY.
   ELEMENT FINAL_PART-1.14701 IS DISTORTING EXCESSIVELY.
   ELEMENT FINAL_PART-1.14704 IS DISTORTING EXCESSIVELY.
   ELEMENT FINAL_PART-1.14706 IS DISTORTING EXCESSIVELY.
   ELEMENT FINAL_PART-1.14707 IS DISTORTING EXCESSIVELY.
   ELEMENT FINAL_PART-1.14709 IS DISTORTING EXCESSIVELY.
   ELEMENT FINAL_PART-1.14710 IS DISTORTING EXCESSIVELY.
   ELEMENT FINAL_PART-1.14715 IS DISTORTING EXCESSIVELY.
   ELEMENT FINAL_PART-1.14717 IS DISTORTING EXCESSIVELY.
   ELEMENT FINAL_PART-1.14718 IS DISTORTING EXCESSIVELY.
   ELEMENT FINAL_PART-1.14719 IS DISTORTING EXCESSIVELY.
   ELEMENT FINAL_PART-1.14720 IS DISTORTING EXCESSIVELY.
   ELEMENT FINAL_PART-1.14722 IS DISTORTING EXCESSIVELY.
   ELEMENT FINAL_PART-1.14726 IS DISTORTING EXCESSIVELY.
   ELEMENT FINAL_PART-1.14728 IS DISTORTING EXCESSIVELY.
   ELEMENT FINAL_PART-1.14734 IS DISTORTING EXCESSIVELY.
   ELEMENT FINAL_PART-1.14735 IS DISTORTING EXCESSIVELY.
   ELEMENT FINAL_PART-1.14736 IS DISTORTING EXCESSIVELY.
   ELEMENT FINAL_PART-1.14757 IS DISTORTING EXCESSIVELY.
   ELEMENT FINAL_PART-1.14758 IS DISTORTING EXCESSIVELY.
   ELEMENT FINAL_PART-1.14759 IS DISTORTING EXCESSIVELY.
   ELEMENT FINAL_PART-1.14776 IS DISTORTING EXCESSIVELY.
   ELEMENT FINAL_PART-1.14798 IS DISTORTING EXCESSIVELY.
   ELEMENT FINAL_PART-1.14867 IS DISTORTING EXCESSIVELY.
   ELEMENT FINAL_PART-1.14874 IS DISTORTING EXCESSIVELY.
   ELEMENT FINAL_PART-1.14877 IS DISTORTING EXCESSIVELY.
   ELEMENT FINAL_PART-1.14880 IS DISTORTING EXCESSIVELY.
   ELEMENT FINAL_PART-1.14881 IS DISTORTING EXCESSIVELY.
   ELEMENT FINAL_PART-1.14888 IS DISTORTING EXCESSIVELY.
   ELEMENT FINAL_PART-1.14889 IS DISTORTING EXCESSIVELY.
   ELEMENT FINAL_PART-1.14890 IS DISTORTING EXCESSIVELY.
   ELEMENT FINAL_PART-1.14894 IS DISTORTING EXCESSIVELY.
   ELEMENT FINAL_PART-1.14895 IS DISTORTING EXCESSIVELY.
   ELEMENT FINAL_PART-1.14897 IS DISTORTING EXCESSIVELY.
   ELEMENT FINAL_PART-1.14898 IS DISTORTING EXCESSIVELY.
   ELEMENT FINAL_PART-1.14899 IS DISTORTING EXCESSIVELY.
   ELEMENT FINAL_PART-1.14900 IS DISTORTING EXCESSIVELY.
   ELEMENT FINAL_PART-1.14901 IS DISTORTING EXCESSIVELY.
   ELEMENT FINAL_PART-1.14916 IS DISTORTING EXCESSIVELY.
   ELEMENT FINAL_PART-1.14953 IS DISTORTING EXCESSIVELY.
   ELEMENT FINAL_PART-1.14956 IS DISTORTING EXCESSIVELY.
   ELEMENT FINAL_PART-1.14959 IS DISTORTING EXCESSIVELY.
   ELEMENT FINAL_PART-1.14960 IS DISTORTING EXCESSIVELY.
   ELEMENT FINAL_PART-1.14961 IS DISTORTING EXCESSIVELY.
   ELEMENT FINAL_PART-1.14962 IS DISTORTING EXCESSIVELY.
   ELEMENT FINAL_PART-1.14964 IS DISTORTING EXCESSIVELY.
   ELEMENT FINAL_PART-1.14965 IS DISTORTING EXCESSIVELY.
   ELEMENT FINAL_PART-1.14967 IS DISTORTING EXCESSIVELY.
   ELEMENT FINAL_PART-1.14968 IS DISTORTING EXCESSIVELY.
   ELEMENT FINAL_PART-1.14969 IS DISTORTING EXCESSIVELY.
   ELEMENT FINAL_PART-1.14971 IS DISTORTING EXCESSIVELY.
   ELEMENT FINAL_PART-1.14972 IS DISTORTING EXCESSIVELY.
   ELEMENT FINAL_PART-1.14973 IS DISTORTING EXCESSIVELY.
   ELEMENT FINAL_PART-1.14974 IS DISTORTING EXCESSIVELY.
   ELEMENT FINAL_PART-1.14978 IS DISTORTING EXCESSIVELY.
   ELEMENT FINAL_PART-1.14980 IS DISTORTING EXCESSIVELY.
   ELEMENT FINAL_PART-1.14981 IS DISTORTING EXCESSIVELY.
   ELEMENT FINAL_PART-1.14984 IS DISTORTING EXCESSIVELY.
   ELEMENT FINAL_PART-1.14985 IS DISTORTING EXCESSIVELY.
   ELEMENT FINAL_PART-1.14992 IS DISTORTING EXCESSIVELY.
   ELEMENT FINAL_PART-1.14995 IS DISTORTING EXCESSIVELY.
   ELEMENT FINAL_PART-1.14996 IS DISTORTING EXCESSIVELY.
   ELEMENT FINAL_PART-1.14997 IS DISTORTING EXCESSIVELY.
   ELEMENT FINAL_PART-1.14999 IS DISTORTING EXCESSIVELY.
   ELEMENT FINAL_PART-1.15001 IS DISTORTING EXCESSIVELY.
   ELEMENT FINAL_PART-1.15002 IS DISTORTING EXCESSIVELY.
   ELEMENT FINAL_PART-1.15004 IS DISTORTING EXCESSIVELY.
   ELEMENT FINAL_PART-1.15006 IS DISTORTING EXCESSIVELY.
   ELEMENT FINAL_PART-1.15007 IS DISTORTING EXCESSIVELY.
   ELEMENT FINAL_PART-1.15008 IS DISTORTING EXCESSIVELY.
   ELEMENT FINAL_PART-1.15009 IS DISTORTING EXCESSIVELY.
   ELEMENT FINAL_PART-1.15010 IS DISTORTING EXCESSIVELY.
   ELEMENT FINAL_PART-1.15011 IS DISTORTING EXCESSIVELY.
   ELEMENT FINAL_PART-1.15012 IS DISTORTING EXCESSIVELY.
   ELEMENT FINAL_PART-1.15014 IS DISTORTING EXCESSIVELY.
   ELEMENT FINAL_PART-1.15023 IS DISTORTING EXCESSIVELY.
   ELEMENT FINAL_PART-1.15027 IS DISTORTING EXCESSIVELY.
   ELEMENT FINAL_PART-1.15029 IS DISTORTING EXCESSIVELY.
   ELEMENT FINAL_PART-1.15030 IS DISTORTING EXCESSIVELY.
   ELEMENT FINAL_PART-1.15031 IS DISTORTING EXCESSIVELY.
   ELEMENT FINAL_PART-1.15033 IS DISTORTING EXCESSIVELY.
   ELEMENT FINAL_PART-1.15034 IS DISTORTING EXCESSIVELY.
   ELEMENT FINAL_PART-1.15036 IS DISTORTING EXCESSIVELY.
   ELEMENT FINAL_PART-1.15038 IS DISTORTING EXCESSIVELY.
   ELEMENT FINAL_PART-1.15039 IS DISTORTING EXCESSIVELY.
   ELEMENT FINAL_PART-1.15040 IS DISTORTING EXCESSIVELY.
   ELEMENT FINAL_PART-1.15042 IS DISTORTING EXCESSIVELY.
   ELEMENT FINAL_PART-1.15045 IS DISTORTING EXCESSIVELY.
   ELEMENT FINAL_PART-1.15047 IS DISTORTING EXCESSIVELY.
   ELEMENT FINAL_PART-1.15049 IS DISTORTING EXCESSIVELY.
   ELEMENT FINAL_PART-1.15050 IS DISTORTING EXCESSIVELY.
   ELEMENT FINAL_PART-1.15051 IS DISTORTING EXCESSIVELY.
   ELEMENT FINAL_PART-1.15052 IS DISTORTING EXCESSIVELY.
   ELEMENT FINAL_PART-1.15054 IS DISTORTING EXCESSIVELY.
   ELEMENT FINAL_PART-1.15055 IS DISTORTING EXCESSIVELY.
   ELEMENT FINAL_PART-1.15057 IS DISTORTING EXCESSIVELY.
   ELEMENT FINAL_PART-1.15059 IS DISTORTING EXCESSIVELY.
   ELEMENT FINAL_PART-1.15061 IS DISTORTING EXCESSIVELY.
   ELEMENT FINAL_PART-1.15063 IS DISTORTING EXCESSIVELY.
   ELEMENT FINAL_PART-1.15065 IS DISTORTING EXCESSIVELY.
   ELEMENT FINAL_PART-1.15067 IS DISTORTING EXCESSIVELY.
   ELEMENT FINAL_PART-1.15074 IS DISTORTING EXCESSIVELY.
   ELEMENT FINAL_PART-1.15081 IS DISTORTING EXCESSIVELY.
   ELEMENT FINAL_PART-1.15086 IS DISTORTING EXCESSIVELY.
   ELEMENT FINAL_PART-1.15088 IS DISTORTING EXCESSIVELY.
   ELEMENT FINAL_PART-1.15090 IS DISTORTING EXCESSIVELY.
   ELEMENT FINAL_PART-1.15130 IS DISTORTING EXCESSIVELY.
   ELEMENT FINAL_PART-1.15132 IS DISTORTING EXCESSIVELY.
   ELEMENT FINAL_PART-1.15134 IS DISTORTING EXCESSIVELY.
   ELEMENT FINAL_PART-1.15137 IS DISTORTING EXCESSIVELY.
   ELEMENT FINAL_PART-1.15147 IS DISTORTING EXCESSIVELY.
   ELEMENT FINAL_PART-1.15153 IS DISTORTING EXCESSIVELY.
   ELEMENT FINAL_PART-1.15183 IS DISTORTING EXCESSIVELY.
   ELEMENT FINAL_PART-1.15188 IS DISTORTING EXCESSIVELY.
   ELEMENT FINAL_PART-1.15194 IS DISTORTING EXCESSIVELY.
   ELEMENT FINAL_PART-1.15204 IS DISTORTING EXCESSIVELY.
   ELEMENT FINAL_PART-1.15205 IS DISTORTING EXCESSIVELY.
   ELEMENT FINAL_PART-1.15206 IS DISTORTING EXCESSIVELY.
   ELEMENT FINAL_PART-1.15208 IS DISTORTING EXCESSIVELY.
   ELEMENT FINAL_PART-1.15210 IS DISTORTING EXCESSIVELY.
   ELEMENT FINAL_PART-1.15211 IS DISTORTING EXCESSIVELY.
   ELEMENT FINAL_PART-1.15216 IS DISTORTING EXCESSIVELY.
   ELEMENT FINAL_PART-1.15218 IS DISTORTING EXCESSIVELY.
   ELEMENT FINAL_PART-1.15219 IS DISTORTING EXCESSIVELY.
   ELEMENT FINAL_PART-1.15220 IS DISTORTING EXCESSIVELY.
   ELEMENT FINAL_PART-1.15221 IS DISTORTING EXCESSIVELY.
   ELEMENT FINAL_PART-1.15222 IS DISTORTING EXCESSIVELY.
   ELEMENT FINAL_PART-1.15223 IS DISTORTING EXCESSIVELY.
   ELEMENT FINAL_PART-1.15224 IS DISTORTING EXCESSIVELY.
   ELEMENT FINAL_PART-1.15225 IS DISTORTING EXCESSIVELY.
   ELEMENT FINAL_PART-1.15226 IS DISTORTING EXCESSIVELY.
   ELEMENT FINAL_PART-1.15227 IS DISTORTING EXCESSIVELY.
   ELEMENT FINAL_PART-1.15230 IS DISTORTING EXCESSIVELY.
   ELEMENT FINAL_PART-1.15231 IS DISTORTING EXCESSIVELY.
   ELEMENT FINAL_PART-1.15235 IS DISTORTING EXCESSIVELY.
   ELEMENT FINAL_PART-1.15254 IS DISTORTING EXCESSIVELY.
   ELEMENT FINAL_PART-1.15256 IS DISTORTING EXCESSIVELY.
   ELEMENT FINAL_PART-1.15260 IS DISTORTING EXCESSIVELY.
   ELEMENT FINAL_PART-1.15263 IS DISTORTING EXCESSIVELY.
[...]
  CORRESPONDING RESIDUAL FORCE      -2.16    
 LARGEST INCREMENT OF DISP.        -7.106E-03   AT NODE        120   DOF  3
   INSTANCE: FINAL_PART-1                                                                    
 LARGEST CORRECTION TO DISP.        3.370E-05   AT NODE        144   DOF  3
   INSTANCE: FINAL_PART-1                                                                    
          FORCE     EQUILIBRIUM NOT ACHIEVED WITHIN TOLERANCE.
 
	SYMMETRIC PURE THREAD-BASED DIRECT SPARSE SOLVER RUNNING ON
 	1 HOST x 1 MPI RANK PER HOST x 1 THREAD PER RANK
        NUMBER OF EQUATIONS:  87720
        NUMBER OF RHS:        1
        NUMBER OF FLOPS:      5.701e+09
        SOLVER ELAPSED TIME:  457ms

               CONVERGENCE CHECKS FOR EQUILIBRIUM ITERATION     4


 AVERAGE FORCE                      0.582       TIME AVG. FORCE       0.242    
 LARGEST SCALED RESIDUAL FORCE      0.936       AT NODE        837   DOF  3
   INSTANCE: FINAL_PART-1                                                                    
  CORRESPONDING RESIDUAL FORCE      0.936    
 LARGEST INCREMENT OF DISP.        -7.105E-03   AT NODE        120   DOF  3
   INSTANCE: FINAL_PART-1                                                                    
 LARGEST CORRECTION TO DISP.        5.121E-06   AT NODE        934   DOF  1
   INSTANCE: FINAL_PART-1                                                                    
          FORCE     EQUILIBRIUM NOT ACHIEVED WITHIN TOLERANCE.
 
	SYMMETRIC PURE THREAD-BASED DIRECT SPARSE SOLVER RUNNING ON
 	1 HOST x 1 MPI RANK PER HOST x 1 THREAD PER RANK
        NUMBER OF EQUATIONS:  87720
        NUMBER OF RHS:        1
        NUMBER OF FLOPS:      5.701e+09
        SOLVER ELAPSED TIME:  462ms

               CONVERGENCE CHECKS FOR EQUILIBRIUM ITERATION     5


 AVERAGE FORCE                      0.582       TIME AVG. FORCE       0.242    
 LARGEST SCALED RESIDUAL FORCE      0.181       AT NODE        838   DOF  1
   INSTANCE: FINAL_PART-1                                                                    
  CORRESPONDING RESIDUAL FORCE      0.181    
 LARGEST INCREMENT OF DISP.        -7.110E-03   AT NODE        120   DOF  3
   INSTANCE: FINAL_PART-1                                                                    
 LARGEST CORRECTION TO DISP.       -5.877E-06   AT NODE        160   DOF  3
   INSTANCE: FINAL_PART-1                                                                    
          FORCE     EQUILIBRIUM NOT ACHIEVED WITHIN TOLERANCE.
 
	SYMMETRIC PURE THREAD-BASED DIRECT SPARSE SOLVER RUNNING ON
 	1 HOST x 1 MPI RANK PER HOST x 1 THREAD PER RANK
        NUMBER OF EQUATIONS:  87720
        NUMBER OF RHS:        1
        NUMBER OF FLOPS:      5.701e+09
        SOLVER ELAPSED TIME:  459ms

               CONVERGENCE CHECKS FOR EQUILIBRIUM ITERATION     6


 AVERAGE FORCE                      0.582       TIME AVG. FORCE       0.242    
 LARGEST SCALED RESIDUAL FORCE     -0.150       AT NODE        837   DOF  1
   INSTANCE: FINAL_PART-1                                                                    
  CORRESPONDING RESIDUAL FORCE     -0.150    
 LARGEST INCREMENT OF DISP.        -7.109E-03   AT NODE        120   DOF  3
   INSTANCE: FINAL_PART-1                                                                    
 LARGEST CORRECTION TO DISP.        1.437E-06   AT NODE        160   DOF  3
   INSTANCE: FINAL_PART-1                                                                    
          FORCE     EQUILIBRIUM NOT ACHIEVED WITHIN TOLERANCE.
 
	SYMMETRIC PURE THREAD-BASED DIRECT SPARSE SOLVER RUNNING ON
 	1 HOST x 1 MPI RANK PER HOST x 1 THREAD PER RANK
        NUMBER OF EQUATIONS:  87720
        NUMBER OF RHS:        1
        NUMBER OF FLOPS:      5.701e+09
        SOLVER ELAPSED TIME:  465ms

               CONVERGENCE CHECKS FOR EQUILIBRIUM ITERATION     7


 AVERAGE FORCE                      0.582       TIME AVG. FORCE       0.242    
 LARGEST SCALED RESIDUAL FORCE      4.781E-02   AT NODE        837   DOF  3
   INSTANCE: FINAL_PART-1                                                                    
  CORRESPONDING RESIDUAL FORCE      4.781E-02
 LARGEST INCREMENT OF DISP.        -7.108E-03   AT NODE        120   DOF  3
   INSTANCE: FINAL_PART-1                                                                    
 LARGEST CORRECTION TO DISP.        6.698E-07   AT NODE        160   DOF  3
   INSTANCE: FINAL_PART-1                                                                    
          FORCE     EQUILIBRIUM NOT ACHIEVED WITHIN TOLERANCE.
 
	SYMMETRIC PURE THREAD-BASED DIRECT SPARSE SOLVER RUNNING ON
 	1 HOST x 1 MPI RANK PER HOST x 1 THREAD PER RANK
        NUMBER OF EQUATIONS:  87720
        NUMBER OF RHS:        1
        NUMBER OF FLOPS:      5.701e+09
        SOLVER ELAPSED TIME:  466ms

               CONVERGENCE CHECKS FOR EQUILIBRIUM ITERATION     8


 AVERAGE FORCE                      0.582       TIME AVG. FORCE       0.242    
 LARGEST SCALED RESIDUAL FORCE      2.299E-02   AT NODE        837   DOF  1
   INSTANCE: FINAL_PART-1                                                                    
  CORRESPONDING RESIDUAL FORCE      2.299E-02
 LARGEST INCREMENT OF DISP.        -7.109E-03   AT NODE        120   DOF  3
   INSTANCE: FINAL_PART-1                                                                    
 LARGEST CORRECTION TO DISP.       -3.754E-07   AT NODE        160   DOF  3
   INSTANCE: FINAL_PART-1                                                                    
          FORCE     EQUILIBRIUM NOT ACHIEVED WITHIN TOLERANCE.
 
	SYMMETRIC PURE THREAD-BASED DIRECT SPARSE SOLVER RUNNING ON
 	1 HOST x 1 MPI RANK PER HOST x 1 THREAD PER RANK
        NUMBER OF EQUATIONS:  87720
        NUMBER OF RHS:        1
        NUMBER OF FLOPS:      5.701e+09
        SOLVER ELAPSED TIME:  463ms

               CONVERGENCE CHECKS FOR EQUILIBRIUM ITERATION     9


 AVERAGE FORCE                      0.582       TIME AVG. FORCE       0.242    
 LARGEST SCALED RESIDUAL FORCE     -9.376E-03   AT NODE        837   DOF  3
   INSTANCE: FINAL_PART-1                                                                    
  CORRESPONDING RESIDUAL FORCE     -9.376E-03
 LARGEST INCREMENT OF DISP.        -7.109E-03   AT NODE        120   DOF  3
   INSTANCE: FINAL_PART-1                                                                    
 LARGEST CORRECTION TO DISP.       -5.132E-08   AT NODE        934   DOF  1
   INSTANCE: FINAL_PART-1                                                                    
          FORCE     EQUILIBRIUM NOT ACHIEVED WITHIN TOLERANCE.
 
	SYMMETRIC PURE THREAD-BASED DIRECT SPARSE SOLVER RUNNING ON
 	1 HOST x 1 MPI RANK PER HOST x 1 THREAD PER RANK
        NUMBER OF EQUATIONS:  87720
        NUMBER OF RHS:        1
        NUMBER OF FLOPS:      5.701e+09
        SOLVER ELAPSED TIME:  469ms

               CONVERGENCE CHECKS FOR EQUILIBRIUM ITERATION    10


 AVERAGE FORCE                      0.582       TIME AVG. FORCE       0.242    
 LARGEST SCALED RESIDUAL FORCE     -2.560E-03   AT NODE        837   DOF  1
   INSTANCE: FINAL_PART-1                                                                    
  CORRESPONDING RESIDUAL FORCE     -2.560E-03
 LARGEST INCREMENT OF DISP.        -7.109E-03   AT NODE        120   DOF  3
   INSTANCE: FINAL_PART-1                                                                    
 LARGEST CORRECTION TO DISP.        6.690E-08   AT NODE        160   DOF  3
   INSTANCE: FINAL_PART-1                                                                    
          THE FORCE     EQUILIBRIUM EQUATIONS HAVE CONVERGED BASED ON ALTERNATIVE
          RESIDUAL CRITERION
 

 ***WARNING: FORCE EQUILIBRIUM ACCEPTED USING THE ALTERNATE TOLERANCE.

 ITERATION SUMMARY FOR THE INCREMENT:  10 TOTAL ITERATIONS, OF WHICH
   0 ARE SEVERE DISCONTINUITY ITERATIONS AND 10 ARE EQUILIBRIUM ITERATIONS.

 TIME INCREMENT COMPLETED  8.899E-02,  FRACTION OF STEP COMPLETED  0.929    
 STEP TIME COMPLETED       0.929    ,  TOTAL TIME COMPLETED        0.929    


  INCREMENT    16 STARTS. ATTEMPT NUMBER  1, TIME INCREMENT  7.056E-02
 
	SYMMETRIC PURE THREAD-BASED DIRECT SPARSE SOLVER RUNNING ON
 	1 HOST x 1 MPI RANK PER HOST x 1 THREAD PER RANK
        NUMBER OF EQUATIONS:  87720
        NUMBER OF RHS:        1
        NUMBER OF FLOPS:      5.701e+09
        SOLVER ELAPSED TIME:  466ms

               CONVERGENCE CHECKS FOR EQUILIBRIUM ITERATION     1


 AVERAGE FORCE                      0.689       TIME AVG. FORCE       0.270    
 LARGEST SCALED RESIDUAL FORCE       6.80       AT NODE        739   DOF  1
   INSTANCE: FINAL_PART-1                                                                    
  CORRESPONDING RESIDUAL FORCE       6.80    
 LARGEST INCREMENT OF DISP.        -6.963E-03   AT NODE        113   DOF  2
   INSTANCE: FINAL_PART-1                                                                    
 LARGEST CORRECTION TO DISP.       -1.903E-03   AT NODE        120   DOF  2
   INSTANCE: FINAL_PART-1                                                                    
          FORCE     EQUILIBRIUM NOT ACHIEVED WITHIN TOLERANCE.
 
	SYMMETRIC PURE THREAD-BASED DIRECT SPARSE SOLVER RUNNING ON
 	1 HOST x 1 MPI RANK PER HOST x 1 THREAD PER RANK
        NUMBER OF EQUATIONS:  87720
        NUMBER OF RHS:        1
        NUMBER OF FLOPS:      5.701e+09
        SOLVER ELAPSED TIME:  462ms

               CONVERGENCE CHECKS FOR EQUILIBRIUM ITERATION     2


 AVERAGE FORCE                      0.631       TIME AVG. FORCE       0.267    
 LARGEST SCALED RESIDUAL FORCE      -2.53       AT NODE        837   DOF  3
   INSTANCE: FINAL_PART-1                                                                    
  CORRESPONDING RESIDUAL FORCE      -2.53    
 LARGEST INCREMENT OF DISP.        -6.980E-03   AT NODE        113   DOF  2
   INSTANCE: FINAL_PART-1                                                                    
 LARGEST CORRECTION TO DISP.       -4.344E-05   AT NODE       4571   DOF  1
   INSTANCE: FINAL_PART-1                                                                    
          FORCE     EQUILIBRIUM NOT ACHIEVED WITHIN TOLERANCE.
 
	SYMMETRIC PURE THREAD-BASED DIRECT SPARSE SOLVER RUNNING ON
 	1 HOST x 1 MPI RANK PER HOST x 1 THREAD PER RANK
        NUMBER OF EQUATIONS:  87720
        NUMBER OF RHS:        1
        NUMBER OF FLOPS:      5.701e+09
        SOLVER ELAPSED TIME:  470ms

               CONVERGENCE CHECKS FOR EQUILIBRIUM ITERATION     3


 AVERAGE FORCE                      0.632       TIME AVG. FORCE       0.267    
 LARGEST SCALED RESIDUAL FORCE     -0.875       AT NODE        838   DOF  1
   INSTANCE: FINAL_PART-1                                                                    
  CORRESPONDING RESIDUAL FORCE     -0.875    
 LARGEST INCREMENT OF DISP.        -6.987E-03   AT NODE        113   DOF  2
   INSTANCE: FINAL_PART-1                                                                    
 LARGEST CORRECTION TO DISP.        1.895E-05   AT NODE        301   DOF  1
   INSTANCE: FINAL_PART-1                                                                    
          FORCE     EQUILIBRIUM NOT ACHIEVED WITHIN TOLERANCE.
 
	SYMMETRIC PURE THREAD-BASED DIRECT SPARSE SOLVER RUNNING ON
 	1 HOST x 1 MPI RANK PER HOST x 1 THREAD PER RANK
        NUMBER OF EQUATIONS:  87720
        NUMBER OF RHS:        1
        NUMBER OF FLOPS:      5.701e+09
        SOLVER ELAPSED TIME:  466ms

               CONVERGENCE CHECKS FOR EQUILIBRIUM ITERATION     4


 AVERAGE FORCE                      0.632       TIME AVG. FORCE       0.267    
 LARGEST SCALED RESIDUAL FORCE      0.449       AT NODE        837   DOF  1
   INSTANCE: FINAL_PART-1                                                                    
  CORRESPONDING RESIDUAL FORCE      0.449    
 LARGEST INCREMENT OF DISP.        -6.985E-03   AT NODE        113   DOF  2
   INSTANCE: FINAL_PART-1                                                                    
 LARGEST CORRECTION TO DISP.        2.376E-06   AT NODE         55   DOF  3
   INSTANCE: FINAL_PART-1                                                                    
          FORCE     EQUILIBRIUM NOT ACHIEVED WITHIN TOLERANCE.
 
	SYMMETRIC PURE THREAD-BASED DIRECT SPARSE SOLVER RUNNING ON
 	1 HOST x 1 MPI RANK PER HOST x 1 THREAD PER RANK
        NUMBER OF EQUATIONS:  87720
        NUMBER OF RHS:        1
        NUMBER OF FLOPS:      5.701e+09
        SOLVER ELAPSED TIME:  465ms

               CONVERGENCE CHECKS FOR EQUILIBRIUM ITERATION     5


 AVERAGE FORCE                      0.632       TIME AVG. FORCE       0.267    
 LARGEST SCALED RESIDUAL FORCE     -0.107       AT NODE        837   DOF  3
   INSTANCE: FINAL_PART-1                                                                    
  CORRESPONDING RESIDUAL FORCE     -0.107    
 LARGEST INCREMENT OF DISP.        -6.987E-03   AT NODE        113   DOF  2
   INSTANCE: FINAL_PART-1                                                                    
 LARGEST CORRECTION TO DISP.       -2.462E-06   AT NODE        301   DOF  1
   INSTANCE: FINAL_PART-1                                                                    
          FORCE     EQUILIBRIUM NOT ACHIEVED WITHIN TOLERANCE.
 
	SYMMETRIC PURE THREAD-BASED DIRECT SPARSE SOLVER RUNNING ON
 	1 HOST x 1 MPI RANK PER HOST x 1 THREAD PER RANK
        NUMBER OF EQUATIONS:  87720
        NUMBER OF RHS:        1
        NUMBER OF FLOPS:      5.701e+09
        SOLVER ELAPSED TIME:  460ms

               CONVERGENCE CHECKS FOR EQUILIBRIUM ITERATION     6


 AVERAGE FORCE                      0.632       TIME AVG. FORCE       0.267    
 LARGEST SCALED RESIDUAL FORCE     -3.346E-02   AT NODE        838   DOF  1
   INSTANCE: FINAL_PART-1                                                                    
  CORRESPONDING RESIDUAL FORCE     -3.346E-02
 LARGEST INCREMENT OF DISP.        -6.986E-03   AT NODE        113   DOF  2
   INSTANCE: FINAL_PART-1                                                                    
 LARGEST CORRECTION TO DISP.        7.029E-07   AT NODE        301   DOF  1
   INSTANCE: FINAL_PART-1                                                                    
          FORCE     EQUILIBRIUM NOT ACHIEVED WITHIN TOLERANCE.
 
	SYMMETRIC PURE THREAD-BASED DIRECT SPARSE SOLVER RUNNING ON
 	1 HOST x 1 MPI RANK PER HOST x 1 THREAD PER RANK
        NUMBER OF EQUATIONS:  87720
        NUMBER OF RHS:        1
        NUMBER OF FLOPS:      5.701e+09
        SOLVER ELAPSED TIME:  464ms

               CONVERGENCE CHECKS FOR EQUILIBRIUM ITERATION     7


 AVERAGE FORCE                      0.632       TIME AVG. FORCE       0.267    
 LARGEST SCALED RESIDUAL FORCE      1.010E-02   AT NODE        838   DOF  3
   INSTANCE: FINAL_PART-1                                                                    
  CORRESPONDING RESIDUAL FORCE      1.010E-02
 LARGEST INCREMENT OF DISP.        -6.986E-03   AT NODE        113   DOF  2
   INSTANCE: FINAL_PART-1                                                                    
 LARGEST CORRECTION TO DISP.        7.321E-08   AT NODE        933   DOF  1
   INSTANCE: FINAL_PART-1                                                                    
          FORCE     EQUILIBRIUM NOT ACHIEVED WITHIN TOLERANCE.
 
	SYMMETRIC PURE THREAD-BASED DIRECT SPARSE SOLVER RUNNING ON
 	1 HOST x 1 MPI RANK PER HOST x 1 THREAD PER RANK
        NUMBER OF EQUATIONS:  87720
        NUMBER OF RHS:        1
        NUMBER OF FLOPS:      5.701e+09
        SOLVER ELAPSED TIME:  464ms

               CONVERGENCE CHECKS FOR EQUILIBRIUM ITERATION     8


 AVERAGE FORCE                      0.632       TIME AVG. FORCE       0.267    
 LARGEST SCALED RESIDUAL FORCE      2.416E-03   AT NODE        838   DOF  1
   INSTANCE: FINAL_PART-1                                                                    
  CORRESPONDING RESIDUAL FORCE      2.416E-03
 LARGEST INCREMENT OF DISP.        -6.986E-03   AT NODE        113   DOF  2
   INSTANCE: FINAL_PART-1                                                                    
 LARGEST CORRECTION TO DISP.       -8.764E-08   AT NODE        301   DOF  1
   INSTANCE: FINAL_PART-1                                                                    
          FORCE     EQUILIBRIUM NOT ACHIEVED WITHIN TOLERANCE.
 
	SYMMETRIC PURE THREAD-BASED DIRECT SPARSE SOLVER RUNNING ON
 	1 HOST x 1 MPI RANK PER HOST x 1 THREAD PER RANK
        NUMBER OF EQUATIONS:  87720
        NUMBER OF RHS:        1
        NUMBER OF FLOPS:      5.701e+09
        SOLVER ELAPSED TIME:  464ms

               CONVERGENCE CHECKS FOR EQUILIBRIUM ITERATION     9


 AVERAGE FORCE                      0.632       TIME AVG. FORCE       0.267    
 LARGEST SCALED RESIDUAL FORCE     -1.511E-03   AT NODE        837   DOF  1
   INSTANCE: FINAL_PART-1                                                                    
  CORRESPONDING RESIDUAL FORCE     -1.511E-03
 LARGEST INCREMENT OF DISP.        -6.986E-03   AT NODE        113   DOF  2
   INSTANCE: FINAL_PART-1                                                                    
 LARGEST CORRECTION TO DISP.        1.437E-08   AT NODE        301   DOF  1
   INSTANCE: FINAL_PART-1                                                                    
          FORCE     EQUILIBRIUM NOT ACHIEVED WITHIN TOLERANCE.
 
	SYMMETRIC PURE THREAD-BASED DIRECT SPARSE SOLVER RUNNING ON
 	1 HOST x 1 MPI RANK PER HOST x 1 THREAD PER RANK
        NUMBER OF EQUATIONS:  87720
        NUMBER OF RHS:        1
        NUMBER OF FLOPS:      5.701e+09
        SOLVER ELAPSED TIME:  473ms

               CONVERGENCE CHECKS FOR EQUILIBRIUM ITERATION    10


 AVERAGE FORCE                      0.632       TIME AVG. FORCE       0.267    
 LARGEST SCALED RESIDUAL FORCE      5.137E-04   AT NODE        837   DOF  1
   INSTANCE: FINAL_PART-1                                                                    
  CORRESPONDING RESIDUAL FORCE      5.137E-04
 LARGEST INCREMENT OF DISP.        -6.986E-03   AT NODE        113   DOF  2
   INSTANCE: FINAL_PART-1                                                                    
 LARGEST CORRECTION TO DISP.        6.458E-09   AT NODE        301   DOF  1
   INSTANCE: FINAL_PART-1                                                                    
          THE FORCE     EQUILIBRIUM EQUATIONS HAVE CONVERGED BASED ON ALTERNATIVE
          RESIDUAL CRITERION

 ITERATION SUMMARY FOR THE INCREMENT:  10 TOTAL ITERATIONS, OF WHICH
   0 ARE SEVERE DISCONTINUITY ITERATIONS AND 10 ARE EQUILIBRIUM ITERATIONS.

 TIME INCREMENT COMPLETED  7.056E-02,  FRACTION OF STEP COMPLETED   1.00    
 STEP TIME COMPLETED        1.00    ,  TOTAL TIME COMPLETED         1.00    


          THE ANALYSIS HAS BEEN COMPLETED



     ANALYSIS SUMMARY:
     TOTAL OF         16  INCREMENTS
                       4  CUTBACKS IN AUTOMATIC INCREMENTATION
                     108  ITERATIONS INCLUDING CONTACT ITERATIONS IF PRESENT
                     108  PASSES THROUGH THE EQUATION SOLVER OF WHICH 
                     108  INVOLVE MATRIX DECOMPOSITION, INCLUDING
                       0  DECOMPOSITION(S) OF THE MASS MATRIX
                       1  REORDERING OF EQUATIONS TO MINIMIZE WAVEFRONT
                       0  ADDITIONAL RESIDUAL EVALUATIONS FOR LINE SEARCHES
                       0  ADDITIONAL OPERATOR EVALUATIONS FOR LINE SEARCHES
                       1  WARNING MESSAGES DURING USER INPUT PROCESSING
                      14  WARNING MESSAGES DURING ANALYSIS
                       0  ANALYSIS WARNINGS ARE NUMERICAL PROBLEM MESSAGES
                      11  ANALYSIS WARNINGS ARE NEGATIVE EIGENVALUE MESSAGES
                       0  ERROR MESSAGES



     JOB TIME SUMMARY
       USER TIME (SEC)      =     4.67E+02
       SYSTEM TIME (SEC)    =      34.    
       TOTAL CPU TIME (SEC) =     5.01E+02
       WALLCLOCK TIME (SEC) =          148
       MEMORY PEAK (GB)     =            0
