1

   Abaqus 2025                                  Date 23-Feb-2026   Time 14:46:14
   For use by UNIVERSITAET STUTTGART under license from Dassault Systemes or its subsidiary.



                         The Abaqus Software is a product of:

                           Dassault Systemes Americas Corp.
                           1301 Atwood Avenue, Suite 101W
                              Johnston, RI 02919, USA
 


                   The Abaqus Software is available only under license
                   from Dassault Systemes or its subsidiary and may be
                   used or reproduced only in accordance with the terms
                   of such license.
 
                          On machine MIB40-GAUSS 
                          you are authorized to run
                          Abaqus/Standard until 31-Mar-2025

                          Your site id is: 200000000017928 


 
                    For assistance or any other information you may
                    obtain contact information for your local office
                    from the world wide web at:

                      https://www.3ds.com/products-services/simulia/services-support/

 
                * * * * * * * * * * * * * * * * * * * * * * * * * * * * * * 
                *                                                         * 
                *                   *****************                     * 
                *                   *  N O T I C E  *                     * 
                *                   *****************                     * 
                *                                                         * 
                *                                                         * 
                *                       Abaqus 2025                       * 
                *                                                         * 
                *       BUILD ID: 2024_09_20-15.00.46 RELr427 198590      * 
                *                                                         * 
                *                                                         * 
                *  Please make sure you are using                         * 
                *  release Abaqus 2025 manuals                            * 
                *  plus the notes accompanying this release.              * 
                *                                                         * 
                *                                                         * 
                *                                                         * 
                *                                                         * 
                *                                                         * 
                *   This program may not be used for commercial purposes  * 
                *           without payment of a commercial fee.          * 
                *                                                         * 
                * * * * * * * * * * * * * * * * * * * * * * * * * * * * * * 


 



     PROCESSING PART, INSTANCE, AND ASSEMBLY INFORMATION
   *******************************************************


     END PROCESSING PART, INSTANCE, AND ASSEMBLY INFORMATION
   ***********************************************************




     OPTIONS BEING PROCESSED
   ***************************


  *Element, type=C3D8R
  *Elset, elset=ASSEMBLY_FINAL_PART-1__PICKEDSET26
  *Elset, elset=ASSEMBLY_FINAL_PART-1__PICKEDSET27
  *Elset, elset=ASSEMBLY__PICKEDSET47
  *Elset, elset=ASSEMBLY___PICKEDSURF45_S2
  *Elset, elset=ASSEMBLY___PICKEDSURF48_S2
  *heading
  *material, name=PLYWOOD_MATERIAL
  *density
  *elastic
  *material, name=TAPE_MATERIAL
  *density
  *elastic
  *solidsection, elset=ASSEMBLY_FINAL_PART-1__PICKEDSET26, material=TAPE_MATERIAL
  *solidsection, elset=ASSEMBLY_FINAL_PART-1__PICKEDSET27, material=PLYWOOD_MATERIAL
  *solidsection, elset=ASSEMBLY_FINAL_PART-1__PICKEDSET26, material=TAPE_MATERIAL
  *solidsection, elset=ASSEMBLY_FINAL_PART-1__PICKEDSET27, material=PLYWOOD_MATERIAL
  *surface, type=ELEMENT, name=ASSEMBLY__PICKEDSURF45
  *surface, type=ELEMENT, name=ASSEMBLY__PICKEDSURF48
  *surface, type=ELEMENT, name=ASSEMBLY__PICKEDSURF45
  *surface, type=ELEMENT, name=ASSEMBLY__PICKEDSURF48
  *boundary
  *boundary
  *surface, type=ELEMENT, name=ASSEMBLY__PICKEDSURF45
  *surface, type=ELEMENT, name=ASSEMBLY__PICKEDSURF48
  *output, field, variable=PRESELECT
  *output, history, variable=PRESELECT
  *output, field, variable=PRESELECT
  *output, history, variable=PRESELECT
  *output, field, variable=PRESELECT
  *output, history, variable=PRESELECT
  
                               E L E M E N T   Q U A L I T Y  C H E C K S        
  
  
 ***NOTES: DISTORTED ISOPARAMETRIC ELEMENTS: ANGLE BETWEEN ISOPARAMETRIC LINES 
           IS LESS THAN 45 DEGREES OR GREATER THAN 135 DEGREES.
  
           TETRAHEDRAL QUALITY MEASURE: VOLUME OF TETRAHEDRON DIVIDED BY THE 
           VOLUME OF EQUILATERAL TETRAHEDRON WITH SAME CIRCUMSPHERE RADIUS; 
           0 FOR DEGENERATE TETRAHEDRON AND 1 FOR EQUILATERIAL TETRAHEDRON. IT 
           IS RECOMMENDED THAT THE TETRAHEDRAL QUALITY MEASURE BE GREATER THAN 
           0.02, THE MIN INTERIOR (DIHEDRAL) ANGLE BE GREATER THAN 10 DEGREES, 
           AND THE MAX INTERIOR (DIHEDRAL) ANGLE BE LESS THAN 160 DEGREES. 
  
           MODIFIED TETRAHEDRAL QUALITY MEASURE: ANGLES BETWEEN THE TWO LINE 
           SEGMENTS ON EACH EDGE; THE EDGES OF MODIFIED TETRAHEDRAL SHOULD BE 
           AS STRAIGHT AS POSSIBLE. IT IS RECOMMENDED THAT THE ANGLE BETWEEN 
           THE TWO LINE SEGMENTS ON EACH EDGE IS BETWEEN 160 AND 180 DEGREES. 
  
           TRIANGULAR QUALITY MEASURE: AREA OF TRIANGLE DIVIDED BY THE AREA OF 
           EQUILATERAL TRIANGLE WITH SAME CIRCUMCIRCLE RADIUS; 0 FOR DEGENERATE 
           TRIANGLE AND 1 FOR EQUILATERAL TRIANGLE. IT IS RECOMMENDED THAT THE
           TRIANGULAR QUALITY MEASURE BE GREATER THAN 0.01, THE MIN INTERIOR 
           ANGLE BE GREATER THAN 10 DEGREES, AND THE MAX INTERIOR ANGLE BE LESS 
           THAN 160 DEGREES. 
  
           NODAL ADJUSTMENTS ARISING FROM CONTACT INTERACTIONS AND/OR TIE 
           CONSTRAINTS CAN CAUSE SEVERE ELEMENT DISTORTION. IT MAY BE NECESSARY 
           TO REMESH IN ORDER TO REDUCE THE AMOUNT OF ADJUSTMENT. 

 ***WARNING: 123 elements are distorted. Either the isoparametric angles are 
             out of the suggested limits or the triangular or tetrahedral 
             quality measure is bad. The elements have been identified in 
             element set WarnElemDistorted.
  
 --------------------------------------------------------------------------------
 Distorted isoparametric elements
  
        Element          Min/max angle   Adjusted nodes 
 ---------------------- ---------------- -------------- 
       FINAL_PART-1.651          37.6881       NO       
       FINAL_PART-1.652          38.9554       NO       
       FINAL_PART-1.653          40.2955       NO       
       FINAL_PART-1.654          41.7139       NO       
       FINAL_PART-1.655          43.2162       NO       
       FINAL_PART-1.656          44.8073       NO       
       FINAL_PART-1.674          38.2163       NO       
       FINAL_PART-1.675          39.4893       NO       
       FINAL_PART-1.676          40.8344       NO       
       FINAL_PART-1.677          42.2559       NO       
       FINAL_PART-1.678          43.7603       NO       
       FINAL_PART-1.718          44.8073       NO       
       FINAL_PART-1.719          43.2162       NO       
       FINAL_PART-1.720          41.7139       NO       
       FINAL_PART-1.721          40.2955       NO       
       FINAL_PART-1.722          38.9554       NO       
       FINAL_PART-1.723          37.6881       NO       
       FINAL_PART-1.742          43.7603       NO       
       FINAL_PART-1.743          42.2559       NO       
       FINAL_PART-1.744          40.8345       NO       
       FINAL_PART-1.745          39.4893       NO       
       FINAL_PART-1.746          38.2163       NO       
       FINAL_PART-1.849          44.6971       NO       
      FINAL_PART-1.3191          44.7162       NO       
      FINAL_PART-1.5556          44.8014       NO       
      FINAL_PART-1.5557          40.9632       NO       
      FINAL_PART-1.5606          43.7694       NO       
      FINAL_PART-1.5608          42.3625       NO       
      FINAL_PART-1.5610          39.5935       NO       
      FINAL_PART-1.6845          42.0588       NO       
      FINAL_PART-1.6855          39.5651       NO       
      FINAL_PART-1.6976          40.7397       NO       
      FINAL_PART-1.6978          43.5383       NO       
      FINAL_PART-1.8110          44.9852       NO       
      FINAL_PART-1.8111          43.7912       NO       
      FINAL_PART-1.8112          42.6471       NO       
      FINAL_PART-1.8113          41.5511       NO       
      FINAL_PART-1.8114          40.5004       NO       
      FINAL_PART-1.8115          39.4928       NO       
      FINAL_PART-1.8116          38.5261       NO       
      FINAL_PART-1.8117          37.5988       NO       
     FINAL_PART-1.14934          44.0889       NO       
     FINAL_PART-1.14935          43.1947       NO       
     FINAL_PART-1.14936          42.3298       NO       
     FINAL_PART-1.14937          41.4921       NO       
     FINAL_PART-1.14938          40.6807       NO       
     FINAL_PART-1.14939          39.8955       NO       
     FINAL_PART-1.14940          39.1354       NO       
     FINAL_PART-1.14941          38.3989       NO       
     FINAL_PART-1.14942          37.6859       NO       
     FINAL_PART-1.14943          36.9956       NO       
     FINAL_PART-1.14991          36.9956       NO       
     FINAL_PART-1.14992          37.6859       NO       
     FINAL_PART-1.14993          38.3989       NO       
     FINAL_PART-1.14994          39.1354       NO       
     FINAL_PART-1.14995          39.8955       NO       
     FINAL_PART-1.14996          40.6807       NO       
     FINAL_PART-1.14997          41.4921       NO       
     FINAL_PART-1.14998          42.3297       NO       
     FINAL_PART-1.14999          43.1947       NO       
     FINAL_PART-1.15000          44.0889       NO       
     FINAL_PART-1.15791          44.8969       NO       
     FINAL_PART-1.22234          44.8352       NO       
     FINAL_PART-1.29167           36.948       NO       
     FINAL_PART-1.29168          37.4592       NO       
     FINAL_PART-1.29169          37.9822       NO       
     FINAL_PART-1.29170          38.5181       NO       
     FINAL_PART-1.29171          39.0668       NO       
     FINAL_PART-1.29172          39.6286       NO       
     FINAL_PART-1.29173          40.2039       NO       
     FINAL_PART-1.29174          40.7935       NO       
     FINAL_PART-1.29175          41.3976       NO       
     FINAL_PART-1.29176          42.0161       NO       
     FINAL_PART-1.29177          42.6498       NO       
     FINAL_PART-1.29178          43.2994       NO       
     FINAL_PART-1.29179          43.9648       NO       
     FINAL_PART-1.29180          44.6467       NO       
     FINAL_PART-1.49693          44.4987       NO       
     FINAL_PART-1.49694          43.9961       NO       
     FINAL_PART-1.49695          43.5026       NO       
     FINAL_PART-1.49696          43.0181       NO       
     FINAL_PART-1.49697          42.5421       NO       
     FINAL_PART-1.49698          42.0746       NO       
     FINAL_PART-1.49699          41.6152       NO       
     FINAL_PART-1.49700          41.1641       NO       
     FINAL_PART-1.49701           40.721       NO       
     FINAL_PART-1.49702          40.2857       NO       
     FINAL_PART-1.49703           39.858       NO       
     FINAL_PART-1.49704          39.4378       NO       
     FINAL_PART-1.49705          39.0251       NO       
     FINAL_PART-1.49706          38.6196       NO       
     FINAL_PART-1.49707          38.2211       NO       
     FINAL_PART-1.49708          37.8294       NO       
     FINAL_PART-1.49709          37.4445       NO       
     FINAL_PART-1.49710          37.0664       NO       
     FINAL_PART-1.49786          36.3233       NO       
     FINAL_PART-1.49791          37.5222       NO       
     FINAL_PART-1.49792          38.7786       NO       
     FINAL_PART-1.49801            39.22       NO       
     FINAL_PART-1.49904          43.9104       NO       
     FINAL_PART-1.49906          42.4584       NO       
     FINAL_PART-1.49907          43.4201       NO       
     FINAL_PART-1.50888           37.115       NO       
     FINAL_PART-1.50890          39.6682       NO       
     FINAL_PART-1.50891           40.122       NO       
     FINAL_PART-1.50894          40.5719       NO       
     FINAL_PART-1.52025          41.4926       NO       
     FINAL_PART-1.52028          41.9718       NO       
     FINAL_PART-1.52029          42.9359       NO       
     FINAL_PART-1.52431          36.7155       NO       
     FINAL_PART-1.52447          41.0232       NO       
     FINAL_PART-1.52451          37.9319       NO       
     FINAL_PART-1.52452          38.3512       NO       
     FINAL_PART-1.52471          44.4118       NO       
     FINAL_PART-1.52472          44.9182       NO       
     FINAL_PART-1.76475          44.2806       NO       
     FINAL_PART-1.76476          43.4399       NO       
     FINAL_PART-1.77496          44.7054       NO       
     FINAL_PART-1.77506           42.251       NO       
     FINAL_PART-1.78513          43.0308       NO       
     FINAL_PART-1.78514          42.6376       NO       
     FINAL_PART-1.78515          41.8911       NO       
     FINAL_PART-1.78911          43.8571       NO       
  
  
  *step, name=Step-1, nlgeom=YES
  *step, name=Step-1, nlgeom=YES
  *output, field, variable=PRESELECT
  *output, history, variable=PRESELECT
  *step, name=Step-1, nlgeom=YES
  *step, name=Step-1, nlgeom=YES
  *static
  *boundary
  *dsload
  *dsload
  *output, field, variable=PRESELECT
  *output, history, variable=PRESELECT
  *endstep
  *step, name=Step-1, nlgeom=YES
  *static
  *boundary
  *endstep

     - (RAMP) OR (STEP) - INDICATE USE OF DEFAULT AMPLITUDES ASSOCIATED WITH THE STEP

     - (RAMP) OR (STEP) - INDICATE USE OF DEFAULT AMPLITUDES ASSOCIATED WITH THE STEP



                            P R O B L E M   S I Z E


          NUMBER OF ELEMENTS IS                                102790
          NUMBER OF NODES IS                                   137274
          NUMBER OF NODES DEFINED BY THE USER                  137274
          TOTAL NUMBER OF VARIABLES IN THE MODEL               411822
          (DEGREES OF FREEDOM PLUS MAX NO. OF ANY LAGRANGE MULTIPLIER
           VARIABLES. INCLUDE *PRINT,SOLVE=YES TO GET THE ACTUAL NUMBER.)



                              END OF USER INPUT PROCESSING



     JOB TIME SUMMARY
       USER TIME (SEC)      =      12.    
       SYSTEM TIME (SEC)    =      1.4    
       TOTAL CPU TIME (SEC) =      13.    
       WALLCLOCK TIME (SEC) =            6
1

   Abaqus 2025                                  Date 23-Feb-2026   Time 14:46:25
   For use by UNIVERSITAET STUTTGART under license from Dassault Systemes or its subsidiary.

                                                                                               STEP    1  INCREMENT    1
                                                                                          TIME COMPLETED IN THIS STEP   0.00    


                        S T E P       1     S T A T I C   A N A L Y S I S


                                                                                          

     AUTOMATIC TIME CONTROL WITH -
          A SUGGESTED INITIAL TIME INCREMENT OF                 1.00    
          AND A TOTAL TIME PERIOD OF                            1.00    
          THE MINIMUM TIME INCREMENT ALLOWED IS                1.000E-05
          THE MAXIMUM TIME INCREMENT ALLOWED IS                 1.00    

     LINEAR EQUATION SOLVER TYPE         DIRECT SPARSE

          LARGE DISPLACEMENT THEORY WILL BE USED
  
                   M E M O R Y   E S T I M A T E
  
 PROCESS      FLOATING PT       MINIMUM MEMORY        MEMORY TO
              OPERATIONS           REQUIRED          MINIMIZE I/O
             PER ITERATION           (MB)               (MB)
  
     1          8.01E+10              274               1646
  
 NOTE:
      (1) SINCE ABAQUS DOES NOT PRE-ALLOCATE MEMORY AND ONLY ALLOCATES MEMORY AS NEEDED DURING THE ANALYSIS,
          THE MEMORY REQUIREMENT PRINTED HERE CAN ONLY BE VIEWED AS A GENERAL GUIDELINE BASED ON THE BEST
          KNOWLEDGE AVAILABLE AT THE BEGINNING OF A STEP BEFORE THE SOLUTION PROCESS HAS BEGUN.
      (2) THE ESTIMATE IS NORMALLY UPDATED AT THE BEGINNING OF EVERY STEP. IT IS THE MAXIMUM VALUE OF THE
          ESTIMATE FROM THE CURRENT STEP TO THE LAST STEP OF THE ANALYSIS, WITH UNSYMMETRIC SOLUTION TAKEN
          INTO ACCOUNT IF APPLICABLE. 
      (3) SINCE THE ESTIMATE IS BASED ON THE ACTIVE DEGREES OF FREEDOM IN THE FIRST ITERATION OF THE 
          CURRENT STEP, THE MEMORY ESTIMATE MIGHT BE SIGNIFICANTLY DIFFERENT THAN ACTUAL USAGE FOR 
          PROBLEMS WITH SUBSTANTIAL CHANGES IN ACTIVE DEGREES OF FREEDOM BETWEEN STEPS (OR EVEN WITHIN
          THE SAME STEP). EXAMPLES ARE: PROBLEMS WITH SIGNIFICANT CONTACT CHANGES, PROBLEMS WITH MODEL
          CHANGE, PROBLEMS WITH BOTH STATIC STEP AND STEADY STATE DYNAMIC PROCEDURES WHERE ACOUSTIC 
          ELEMENTS WILL ONLY BE ACTIVATED IN THE STEADY STATE DYNAMIC STEPS.
      (4) FOR MULTI-PROCESS EXECUTION, THE ESTIMATED VALUE OF FLOATING POINT OPERATIONS FOR EACH PROCESS
          IS BASED ON AN INITIAL SCHEDULING OF OPERATIONS AND MIGHT NOT REFLECT THE ACTUAL FLOATING 
          POINT OPERATIONS COMPLETED ON EACH PROCESS. OPERATIONS ARE DYNAMICALLY BALANCED DURING EXECUTION, 
          SO THE ACTUAL BALANCE OF OPERATIONS BETWEEN PROCESSES IS EXPECTED TO BE BETTER THAN THE ESTIMATE
          PRINTED HERE.
      (5) THE UPPER LIMIT OF MEMORY THAT CAN BE ALLOCATED BY ABAQUS WILL IN GENERAL DEPEND ON THE VALUE OF
          THE "MEMORY" PARAMETER AND THE AMOUNT OF PHYSICAL MEMORY AVAILABLE ON THE MACHINE. PLEASE SEE
          THE "ABAQUS ANALYSIS USER'S MANUAL" FOR MORE DETAILS. THE ACTUAL USAGE OF MEMORY AND OF DISK
          SPACE FOR SCRATCH DATA WILL DEPEND ON THIS UPPER LIMIT AS WELL AS THE MEMORY REQUIRED TO MINIMIZE
          I/O. IF THE MEMORY UPPER LIMIT IS GREATER THAN THE MEMORY REQUIRED TO MINIMIZE I/O, THEN THE ACTUAL
          MEMORY USAGE WILL BE CLOSE TO THE ESTIMATED "MEMORY TO MINIMIZE I/O" VALUE, AND THE SCRATCH DISK
          USAGE WILL BE CLOSE-TO-ZERO; OTHERWISE, THE ACTUAL MEMORY USED WILL BE CLOSE TO THE PREVIOUSLY
          MENTIONED MEMORY LIMIT, AND THE SCRATCH DISK USAGE WILL BE ROUGHLY PROPORTIONAL TO THE DIFFERENCE
          BETWEEN THE ESTIMATED "MEMORY TO MINIMIZE I/O" AND THE MEMORY UPPER LIMIT. HOWEVER ACCURATE
          ESTIMATE OF THE SCRATCH DISK SPACE IS NOT POSSIBLE.
      (6) USING "*RESTART, WRITE" CAN GENERATE A LARGE AMOUNT OF DATA WRITTEN IN THE WORK DIRECTORY.



                              ANALYSIS COMPLETE
                              WITH      2 ERROR MESSAGES ON THE MSG FILE
                              AND       1 WARNING MESSAGES ON THE DAT FILE
                              AND      24 WARNING MESSAGES ON THE MSG FILE
                                       21 WARNINGS ARE FOR NEGATIVE EIGENVALUES



     JOB TIME SUMMARY
       USER TIME (SEC)      =     4.09E+03
       SYSTEM TIME (SEC)    =     7.52E+02
       TOTAL CPU TIME (SEC) =     4.84E+03
       WALLCLOCK TIME (SEC) =         1652
