1

   Abaqus 2025                                  Date 23-Feb-2026   Time 15:08:43
   For use by UNIVERSITAET STUTTGART under license from Dassault Systemes or its subsidiary.



                         The Abaqus Software is a product of:

                           Dassault Systemes Americas Corp.
                           1301 Atwood Avenue, Suite 101W
                              Johnston, RI 02919, USA
 


                   The Abaqus Software is available only under license
                   from Dassault Systemes or its subsidiary and may be
                   used or reproduced only in accordance with the terms
                   of such license.
 
                          On machine MIB40-GAUSS 
                          you are authorized to run
                          Abaqus/Standard until 31-Mar-2025

                          Your site id is: 200000000017928 


 
                    For assistance or any other information you may
                    obtain contact information for your local office
                    from the world wide web at:

                      https://www.3ds.com/products-services/simulia/services-support/

 
                * * * * * * * * * * * * * * * * * * * * * * * * * * * * * * 
                *                                                         * 
                *                   *****************                     * 
                *                   *  N O T I C E  *                     * 
                *                   *****************                     * 
                *                                                         * 
                *                                                         * 
                *                       Abaqus 2025                       * 
                *                                                         * 
                *       BUILD ID: 2024_09_20-15.00.46 RELr427 198590      * 
                *                                                         * 
                *                                                         * 
                *  Please make sure you are using                         * 
                *  release Abaqus 2025 manuals                            * 
                *  plus the notes accompanying this release.              * 
                *                                                         * 
                *                                                         * 
                *                                                         * 
                *                                                         * 
                *                                                         * 
                *   This program may not be used for commercial purposes  * 
                *           without payment of a commercial fee.          * 
                *                                                         * 
                * * * * * * * * * * * * * * * * * * * * * * * * * * * * * * 


 



     PROCESSING PART, INSTANCE, AND ASSEMBLY INFORMATION
   *******************************************************


     END PROCESSING PART, INSTANCE, AND ASSEMBLY INFORMATION
   ***********************************************************




     OPTIONS BEING PROCESSED
   ***************************


  *Element, type=C3D8R
  *Elset, elset=ASSEMBLY_FINAL_PART-1__PICKEDSET26
  *Elset, elset=ASSEMBLY_FINAL_PART-1__PICKEDSET27
  *Elset, elset=ASSEMBLY__PICKEDSET47
  *Elset, elset=ASSEMBLY___PICKEDSURF45_S2
  *Elset, elset=ASSEMBLY___PICKEDSURF48_S2
  *heading
  *material, name=PLYWOOD_MATERIAL
  *density
  *elastic
  *material, name=TAPE_MATERIAL
  *density
  *elastic
  *solidsection, elset=ASSEMBLY_FINAL_PART-1__PICKEDSET26, material=TAPE_MATERIAL
  *solidsection, elset=ASSEMBLY_FINAL_PART-1__PICKEDSET27, material=PLYWOOD_MATERIAL
  *solidsection, elset=ASSEMBLY_FINAL_PART-1__PICKEDSET26, material=TAPE_MATERIAL
  *solidsection, elset=ASSEMBLY_FINAL_PART-1__PICKEDSET27, material=PLYWOOD_MATERIAL
  *surface, type=ELEMENT, name=ASSEMBLY__PICKEDSURF45
  *surface, type=ELEMENT, name=ASSEMBLY__PICKEDSURF48
  *surface, type=ELEMENT, name=ASSEMBLY__PICKEDSURF45
  *surface, type=ELEMENT, name=ASSEMBLY__PICKEDSURF48
  *boundary
  *boundary
  *surface, type=ELEMENT, name=ASSEMBLY__PICKEDSURF45
  *surface, type=ELEMENT, name=ASSEMBLY__PICKEDSURF48
  *output, field, variable=PRESELECT
  *output, history, variable=PRESELECT
  *output, field, variable=PRESELECT
  *output, history, variable=PRESELECT
  *output, field, variable=PRESELECT
  *output, history, variable=PRESELECT
  
                               E L E M E N T   Q U A L I T Y  C H E C K S        
  
  
 ***NOTES: DISTORTED ISOPARAMETRIC ELEMENTS: ANGLE BETWEEN ISOPARAMETRIC LINES 
           IS LESS THAN 45 DEGREES OR GREATER THAN 135 DEGREES.
  
           TETRAHEDRAL QUALITY MEASURE: VOLUME OF TETRAHEDRON DIVIDED BY THE 
           VOLUME OF EQUILATERAL TETRAHEDRON WITH SAME CIRCUMSPHERE RADIUS; 
           0 FOR DEGENERATE TETRAHEDRON AND 1 FOR EQUILATERIAL TETRAHEDRON. IT 
           IS RECOMMENDED THAT THE TETRAHEDRAL QUALITY MEASURE BE GREATER THAN 
           0.02, THE MIN INTERIOR (DIHEDRAL) ANGLE BE GREATER THAN 10 DEGREES, 
           AND THE MAX INTERIOR (DIHEDRAL) ANGLE BE LESS THAN 160 DEGREES. 
  
           MODIFIED TETRAHEDRAL QUALITY MEASURE: ANGLES BETWEEN THE TWO LINE 
           SEGMENTS ON EACH EDGE; THE EDGES OF MODIFIED TETRAHEDRAL SHOULD BE 
           AS STRAIGHT AS POSSIBLE. IT IS RECOMMENDED THAT THE ANGLE BETWEEN 
           THE TWO LINE SEGMENTS ON EACH EDGE IS BETWEEN 160 AND 180 DEGREES. 
  
           TRIANGULAR QUALITY MEASURE: AREA OF TRIANGLE DIVIDED BY THE AREA OF 
           EQUILATERAL TRIANGLE WITH SAME CIRCUMCIRCLE RADIUS; 0 FOR DEGENERATE 
           TRIANGLE AND 1 FOR EQUILATERAL TRIANGLE. IT IS RECOMMENDED THAT THE
           TRIANGULAR QUALITY MEASURE BE GREATER THAN 0.01, THE MIN INTERIOR 
           ANGLE BE GREATER THAN 10 DEGREES, AND THE MAX INTERIOR ANGLE BE LESS 
           THAN 160 DEGREES. 
  
           NODAL ADJUSTMENTS ARISING FROM CONTACT INTERACTIONS AND/OR TIE 
           CONSTRAINTS CAN CAUSE SEVERE ELEMENT DISTORTION. IT MAY BE NECESSARY 
           TO REMESH IN ORDER TO REDUCE THE AMOUNT OF ADJUSTMENT. 

 ***WARNING: 642 elements are distorted. Either the isoparametric angles are 
             out of the suggested limits or the triangular or tetrahedral 
             quality measure is bad. The elements have been identified in 
             element set WarnElemDistorted.
  
 --------------------------------------------------------------------------------
 Distorted isoparametric elements
  
        Element          Min/max angle   Adjusted nodes 
 ---------------------- ---------------- -------------- 
       FINAL_PART-1.467          27.2156       NO       
       FINAL_PART-1.468          28.7995       NO       
       FINAL_PART-1.469          30.5603       NO       
       FINAL_PART-1.470          32.5257       NO       
       FINAL_PART-1.471          34.7279       NO       
       FINAL_PART-1.472          37.2045       NO       
       FINAL_PART-1.473          39.9993       NO       
       FINAL_PART-1.474          43.1614       NO       
       FINAL_PART-1.483            27.63       NO       
       FINAL_PART-1.484          29.2295       NO       
       FINAL_PART-1.485          31.0063       NO       
       FINAL_PART-1.486          32.9868       NO       
       FINAL_PART-1.487          35.2035       NO       
       FINAL_PART-1.488          37.6941       NO       
       FINAL_PART-1.489          40.4997       NO       
       FINAL_PART-1.490          43.6677       NO       
       FINAL_PART-1.499          44.8969       NO       
       FINAL_PART-1.501          44.8969       NO       
       FINAL_PART-1.511          43.1615       NO       
       FINAL_PART-1.512          39.9993       NO       
       FINAL_PART-1.513          37.2046       NO       
       FINAL_PART-1.514          34.7279       NO       
       FINAL_PART-1.515          32.5257       NO       
       FINAL_PART-1.516          30.5604       NO       
       FINAL_PART-1.517          28.7995       NO       
       FINAL_PART-1.518          27.2156       NO       
       FINAL_PART-1.527          43.6677       NO       
       FINAL_PART-1.528          40.4997       NO       
       FINAL_PART-1.529          37.6941       NO       
       FINAL_PART-1.530          35.2036       NO       
       FINAL_PART-1.531          32.9868       NO       
       FINAL_PART-1.532          31.0063       NO       
       FINAL_PART-1.533          29.2295       NO       
       FINAL_PART-1.534            27.63       NO       
       FINAL_PART-1.539          36.8064       NO       
       FINAL_PART-1.569          35.6753       NO       
       FINAL_PART-1.572          33.4191       NO       
       FINAL_PART-1.574          33.9617       NO       
       FINAL_PART-1.576          38.1281       NO       
       FINAL_PART-1.578          41.9198       NO       
       FINAL_PART-1.588          38.3017       NO       
       FINAL_PART-1.605          33.0566       NO       
       FINAL_PART-1.650          37.2863       NO       
       FINAL_PART-1.669          40.7128       NO       
       FINAL_PART-1.673          37.1603       NO       
       FINAL_PART-1.690          43.0688       NO       
       FINAL_PART-1.728          38.6522       NO       
       FINAL_PART-1.729          40.7334       NO       
       FINAL_PART-1.786          34.7939       NO       
       FINAL_PART-1.794          40.5515       NO       
       FINAL_PART-1.795          44.1524       NO       
       FINAL_PART-1.796          44.3496       NO       
       FINAL_PART-1.797          44.5416       NO       
       FINAL_PART-1.798           44.728       NO       
       FINAL_PART-1.799          44.9101       NO       
       FINAL_PART-1.815          37.1208       NO       
      FINAL_PART-1.1666          34.7544       NO       
      FINAL_PART-1.1675           40.691       NO       
      FINAL_PART-1.1677          35.9587       NO       
      FINAL_PART-1.1681          33.2726       NO       
      FINAL_PART-1.1697          34.1175       NO       
      FINAL_PART-1.1712          29.5885       NO       
      FINAL_PART-1.1713          27.0866       NO       
      FINAL_PART-1.1714          43.1107       NO       
      FINAL_PART-1.1733          36.3863       NO       
      FINAL_PART-1.1770          35.1563       NO       
      FINAL_PART-1.1780          29.5545       NO       
      FINAL_PART-1.1781          26.3713       NO       
      FINAL_PART-1.1806          28.1165       NO       
      FINAL_PART-1.1814          36.5035       NO       
      FINAL_PART-1.1854          43.2103       NO       
      FINAL_PART-1.1871          36.4026       NO       
      FINAL_PART-1.1889          37.9819       NO       
      FINAL_PART-1.1891          37.4096       NO       
      FINAL_PART-1.1923          40.5515       NO       
      FINAL_PART-1.1924          44.1524       NO       
      FINAL_PART-1.1925          44.3496       NO       
      FINAL_PART-1.1926          44.5416       NO       
      FINAL_PART-1.1927           44.728       NO       
      FINAL_PART-1.1928          44.9101       NO       
      FINAL_PART-1.1944          37.1208       NO       
      FINAL_PART-1.2819          44.9207       NO       
      FINAL_PART-1.2820          42.0349       NO       
      FINAL_PART-1.2821          39.3806       NO       
      FINAL_PART-1.2822           36.944       NO       
      FINAL_PART-1.2823          34.7129       NO       
      FINAL_PART-1.2824          32.7022       NO       
      FINAL_PART-1.2855          29.3575       NO       
      FINAL_PART-1.2856          30.9168       NO       
      FINAL_PART-1.2945          38.0905       NO       
      FINAL_PART-1.3446          34.2986       NO       
      FINAL_PART-1.3469          30.9089       NO       
      FINAL_PART-1.3470          32.6862       NO       
      FINAL_PART-1.3476          29.3708       NO       
      FINAL_PART-1.3554          36.5296       NO       
      FINAL_PART-1.3555           44.569       NO       
      FINAL_PART-1.3557          41.6812       NO       
      FINAL_PART-1.3558          39.0017       NO       
      FINAL_PART-1.3584          38.0905       NO       
      FINAL_PART-1.4098          44.1795       NO       
      FINAL_PART-1.4099          41.7978       NO       
      FINAL_PART-1.4100          39.6182       NO       
      FINAL_PART-1.4101          37.6219       NO       
      FINAL_PART-1.4102          35.7912       NO       
      FINAL_PART-1.4103          34.1094       NO       
      FINAL_PART-1.4104          32.5622       NO       
      FINAL_PART-1.4105          31.1352       NO       
      FINAL_PART-1.4106          29.8169       NO       
      FINAL_PART-1.4107          28.5966       NO       
      FINAL_PART-1.4108          27.4646       NO       
      FINAL_PART-1.4124          44.2511       NO       
      FINAL_PART-1.4125          42.4635       NO       
      FINAL_PART-1.4126          40.7895       NO       
      FINAL_PART-1.4127          39.2222       NO       
      FINAL_PART-1.4128          37.7535       NO       
      FINAL_PART-1.4129          36.3756       NO       
      FINAL_PART-1.4130           35.082       NO       
      FINAL_PART-1.4140          42.7267       NO       
      FINAL_PART-1.4156          41.5101       NO       
      FINAL_PART-1.4182          36.9584       NO       
      FINAL_PART-1.4183          37.0117       NO       
      FINAL_PART-1.4184          37.7977       NO       
      FINAL_PART-1.4209           41.152       NO       
      FINAL_PART-1.4210          37.9624       NO       
      FINAL_PART-1.4301           44.853       NO       
      FINAL_PART-1.4322          44.0522       NO       
      FINAL_PART-1.4404          44.0016       NO       
      FINAL_PART-1.4406          44.4772       NO       
      FINAL_PART-1.4439          36.2415       NO       
      FINAL_PART-1.4531          42.7711       NO       
      FINAL_PART-1.4544          44.9061       NO       
      FINAL_PART-1.4545          44.7993       NO       
      FINAL_PART-1.4546          44.6907       NO       
      FINAL_PART-1.4547          44.5807       NO       
      FINAL_PART-1.4548          44.4685       NO       
      FINAL_PART-1.4549          44.3544       NO       
      FINAL_PART-1.4550           44.239       NO       
      FINAL_PART-1.4551          44.1217       NO       
      FINAL_PART-1.4552          44.0028       NO       
      FINAL_PART-1.4553          43.8821       NO       
      FINAL_PART-1.4554          43.7601       NO       
      FINAL_PART-1.4555          43.6366       NO       
      FINAL_PART-1.4556          43.5112       NO       
      FINAL_PART-1.4557          43.3844       NO       
      FINAL_PART-1.4558          43.2564       NO       
      FINAL_PART-1.4559           40.405       NO       
      FINAL_PART-1.5845          38.8033       NO       
      FINAL_PART-1.5847          40.7704       NO       
      FINAL_PART-1.5851          42.3821       NO       
      FINAL_PART-1.5853          44.1766       NO       
      FINAL_PART-1.5888          37.9187       NO       
      FINAL_PART-1.5891          38.9247       NO       
      FINAL_PART-1.5893          39.1356       NO       
      FINAL_PART-1.5937          35.5168       NO       
      FINAL_PART-1.6026          37.9539       NO       
      FINAL_PART-1.6033          43.2885       NO       
      FINAL_PART-1.6037          44.0653       NO       
      FINAL_PART-1.6093          39.6522       NO       
      FINAL_PART-1.6101          36.6698       NO       
      FINAL_PART-1.6102          37.9367       NO       
      FINAL_PART-1.6119          39.3589       NO       
      FINAL_PART-1.6244          37.8682       NO       
      FINAL_PART-1.6257           44.906       NO       
      FINAL_PART-1.6258          44.7993       NO       
      FINAL_PART-1.6259          44.6906       NO       
      FINAL_PART-1.6260          44.5807       NO       
      FINAL_PART-1.6261          44.4685       NO       
      FINAL_PART-1.6262          44.3544       NO       
      FINAL_PART-1.6263           44.239       NO       
      FINAL_PART-1.6264          44.1217       NO       
      FINAL_PART-1.6265          44.0028       NO       
      FINAL_PART-1.6266           43.882       NO       
      FINAL_PART-1.6267          43.7601       NO       
      FINAL_PART-1.6268          43.6366       NO       
      FINAL_PART-1.6269          43.5112       NO       
      FINAL_PART-1.6270          43.3844       NO       
      FINAL_PART-1.6271          43.2563       NO       
      FINAL_PART-1.6272           40.405       NO       
      FINAL_PART-1.7573          34.7236       NO       
      FINAL_PART-1.7574          36.0115       NO       
      FINAL_PART-1.7575          37.3846       NO       
      FINAL_PART-1.7576          38.8492       NO       
      FINAL_PART-1.7577          40.4131       NO       
      FINAL_PART-1.7578          42.0839       NO       
      FINAL_PART-1.7579          43.8701       NO       
      FINAL_PART-1.7595           35.082       NO       
      FINAL_PART-1.7596          36.3756       NO       
      FINAL_PART-1.7597          37.7535       NO       
      FINAL_PART-1.7598          39.2222       NO       
      FINAL_PART-1.7599          40.7895       NO       
      FINAL_PART-1.7600          42.4634       NO       
      FINAL_PART-1.7601           44.251       NO       
      FINAL_PART-1.7633          44.7666       NO       
      FINAL_PART-1.7634          42.8579       NO       
      FINAL_PART-1.7635          41.0775       NO       
      FINAL_PART-1.7636          39.4153       NO       
      FINAL_PART-1.7637          37.8624       NO       
      FINAL_PART-1.7638          36.4112       NO       
      FINAL_PART-1.7639          35.0532       NO       
      FINAL_PART-1.7640          33.7807       NO       
      FINAL_PART-1.7641          32.5879       NO       
      FINAL_PART-1.7642          31.4679       NO       
      FINAL_PART-1.7643          30.4151       NO       
      FINAL_PART-1.7644          29.4242       NO       
      FINAL_PART-1.7645          28.4906       NO       
      FINAL_PART-1.7646            27.61       NO       
      FINAL_PART-1.7647          26.7782       NO       
      FINAL_PART-1.7667          44.8054       NO       
      FINAL_PART-1.7668          43.3742       NO       
      FINAL_PART-1.7669          42.0149       NO       
      FINAL_PART-1.7670           40.723       NO       
      FINAL_PART-1.7671          39.4951       NO       
      FINAL_PART-1.7672          38.3278       NO       
      FINAL_PART-1.7673          37.2181       NO       
      FINAL_PART-1.7674          36.1626       NO       
      FINAL_PART-1.7675          35.1576       NO       
      FINAL_PART-1.7676          34.2001       NO       
      FINAL_PART-1.7677          44.7674       NO       
      FINAL_PART-1.7683          26.7781       NO       
      FINAL_PART-1.7684            27.61       NO       
      FINAL_PART-1.7685          28.4906       NO       
      FINAL_PART-1.7686          29.4242       NO       
      FINAL_PART-1.7687          30.4151       NO       
      FINAL_PART-1.7688          31.4679       NO       
      FINAL_PART-1.7689          32.5879       NO       
      FINAL_PART-1.7690          33.7807       NO       
      FINAL_PART-1.7691          35.0532       NO       
      FINAL_PART-1.7692          36.4112       NO       
      FINAL_PART-1.7693          37.8624       NO       
      FINAL_PART-1.7694          39.4153       NO       
      FINAL_PART-1.7695          41.0774       NO       
      FINAL_PART-1.7696          42.8579       NO       
      FINAL_PART-1.7697          44.7666       NO       
      FINAL_PART-1.7712          34.2001       NO       
      FINAL_PART-1.7713          35.1576       NO       
      FINAL_PART-1.7714          36.1625       NO       
      FINAL_PART-1.7715          37.2181       NO       
      FINAL_PART-1.7716          38.3278       NO       
      FINAL_PART-1.7717           39.495       NO       
      FINAL_PART-1.7718           40.723       NO       
      FINAL_PART-1.7719          42.0148       NO       
      FINAL_PART-1.7720          43.3742       NO       
      FINAL_PART-1.7721          44.8054       NO       
      FINAL_PART-1.7741          44.7674       NO       
      FINAL_PART-1.7757          33.8563       NO       
      FINAL_PART-1.7758          30.0777       NO       
      FINAL_PART-1.7780           37.262       NO       
      FINAL_PART-1.7781          35.6898       NO       
      FINAL_PART-1.7787          38.6918       NO       
      FINAL_PART-1.7795          41.8959       NO       
      FINAL_PART-1.7796          44.6422       NO       
      FINAL_PART-1.7873          44.3532       NO       
      FINAL_PART-1.7879          37.7811       NO       
      FINAL_PART-1.7880          36.4041       NO       
      FINAL_PART-1.7881          35.7569       NO       
      FINAL_PART-1.7884          37.0874       NO       
      FINAL_PART-1.7904          44.3496       NO       
      FINAL_PART-1.7908          42.5513       NO       
      FINAL_PART-1.7910          40.8068       NO       
      FINAL_PART-1.7912          40.0129       NO       
      FINAL_PART-1.7913          39.2516       NO       
      FINAL_PART-1.7914           38.497       NO       
      FINAL_PART-1.8014          40.3212       NO       
      FINAL_PART-1.8071           43.446       NO       
      FINAL_PART-1.8103          30.5137       NO       
      FINAL_PART-1.8104          36.2661       NO       
      FINAL_PART-1.8105          40.4266       NO       
      FINAL_PART-1.8115          41.6427       NO       
      FINAL_PART-1.8271          36.4075       NO       
      FINAL_PART-1.8589          40.0003       NO       
      FINAL_PART-1.8590          43.4232       NO       
      FINAL_PART-1.8591          43.5387       NO       
      FINAL_PART-1.8592           43.653       NO       
      FINAL_PART-1.8593           43.766       NO       
      FINAL_PART-1.8594          43.8775       NO       
      FINAL_PART-1.8595          43.9882       NO       
      FINAL_PART-1.8596          44.0977       NO       
      FINAL_PART-1.8597          44.2056       NO       
      FINAL_PART-1.8598          44.3123       NO       
      FINAL_PART-1.8599          44.4172       NO       
      FINAL_PART-1.8600          44.5211       NO       
      FINAL_PART-1.8601          44.6238       NO       
      FINAL_PART-1.8602          44.7249       NO       
      FINAL_PART-1.8603          44.8244       NO       
      FINAL_PART-1.8604          44.9224       NO       
      FINAL_PART-1.8627          37.1855       NO       
     FINAL_PART-1.11283          37.7679       NO       
     FINAL_PART-1.11300          36.3836       NO       
     FINAL_PART-1.11301          37.0645       NO       
     FINAL_PART-1.11315          35.6469       NO       
     FINAL_PART-1.11316           36.382       NO       
     FINAL_PART-1.11318          37.2262       NO       
     FINAL_PART-1.11319          36.2272       NO       
     FINAL_PART-1.11329          38.7662       NO       
     FINAL_PART-1.11346          34.3564       NO       
     FINAL_PART-1.11347          33.4768       NO       
     FINAL_PART-1.11367          41.7168       NO       
     FINAL_PART-1.11369          40.8665       NO       
     FINAL_PART-1.11370          40.0914       NO       
     FINAL_PART-1.11371          39.2989       NO       
     FINAL_PART-1.11373          44.5999       NO       
     FINAL_PART-1.11601          42.5905       NO       
     FINAL_PART-1.11642          43.4627       NO       
     FINAL_PART-1.11657          35.7406       NO       
     FINAL_PART-1.11662           43.967       NO       
     FINAL_PART-1.11663          38.5107       NO       
     FINAL_PART-1.11777          44.3529       NO       
     FINAL_PART-1.11805          44.5091       NO       
     FINAL_PART-1.11806          41.6642       NO       
     FINAL_PART-1.11814          35.2774       NO       
     FINAL_PART-1.11874           37.013       NO       
     FINAL_PART-1.12136          40.0003       NO       
     FINAL_PART-1.12137          43.4232       NO       
     FINAL_PART-1.12138          43.5387       NO       
     FINAL_PART-1.12139           43.653       NO       
     FINAL_PART-1.12140           43.766       NO       
     FINAL_PART-1.12141          43.8775       NO       
     FINAL_PART-1.12142          43.9882       NO       
     FINAL_PART-1.12143          44.0977       NO       
     FINAL_PART-1.12144          44.2056       NO       
     FINAL_PART-1.12145          44.3123       NO       
     FINAL_PART-1.12146          44.4172       NO       
     FINAL_PART-1.12147          44.5211       NO       
     FINAL_PART-1.12148          44.6238       NO       
     FINAL_PART-1.12149          44.7249       NO       
     FINAL_PART-1.12150          44.8244       NO       
     FINAL_PART-1.12151          44.9224       NO       
     FINAL_PART-1.12174          37.1855       NO       
     FINAL_PART-1.14855          26.7049       NO       
     FINAL_PART-1.14856           27.315       NO       
     FINAL_PART-1.14857          27.9514       NO       
     FINAL_PART-1.14858          28.6154       NO       
     FINAL_PART-1.14859          29.3089       NO       
     FINAL_PART-1.14860          30.0339       NO       
     FINAL_PART-1.14861           30.792       NO       
     FINAL_PART-1.14862          31.5853       NO       
     FINAL_PART-1.14863           32.416       NO       
     FINAL_PART-1.14864          33.2863       NO       
     FINAL_PART-1.14865          34.1991       NO       
     FINAL_PART-1.14866          35.1565       NO       
     FINAL_PART-1.14867          36.1615       NO       
     FINAL_PART-1.14868          37.2171       NO       
     FINAL_PART-1.14869          38.3266       NO       
     FINAL_PART-1.14870          39.4935       NO       
     FINAL_PART-1.14871          40.7213       NO       
     FINAL_PART-1.14872          42.0131       NO       
     FINAL_PART-1.14873           43.373       NO       
     FINAL_PART-1.14874          44.8049       NO       
     FINAL_PART-1.14894          34.0494       NO       
     FINAL_PART-1.14895          34.7523       NO       
     FINAL_PART-1.14896          35.4811       NO       
     FINAL_PART-1.14897          36.2365       NO       
     FINAL_PART-1.14898          37.0204       NO       
     FINAL_PART-1.14899           37.834       NO       
     FINAL_PART-1.14900          38.6779       NO       
     FINAL_PART-1.14901          39.5543       NO       
     FINAL_PART-1.14902          40.4646       NO       
     FINAL_PART-1.14903          41.4099       NO       
     FINAL_PART-1.14904           42.392       NO       
     FINAL_PART-1.14905          43.4126       NO       
     FINAL_PART-1.14906           44.473       NO       
     FINAL_PART-1.14933          44.8049       NO       
     FINAL_PART-1.14980          41.8866       NO       
     FINAL_PART-1.14983          38.8426       NO       
     FINAL_PART-1.14984          37.3919       NO       
     FINAL_PART-1.14985          35.3628       NO       
     FINAL_PART-1.15011          37.3309       NO       
     FINAL_PART-1.15012          36.6896       NO       
     FINAL_PART-1.15054          44.3266       NO       
     FINAL_PART-1.15055           44.981       NO       
     FINAL_PART-1.15094          38.7152       NO       
     FINAL_PART-1.15095          39.2153       NO       
     FINAL_PART-1.15096           40.263       NO       
     FINAL_PART-1.15100          38.2362       NO       
     FINAL_PART-1.15102          40.8195       NO       
     FINAL_PART-1.15103          41.9407       NO       
     FINAL_PART-1.15285          38.1042       NO       
     FINAL_PART-1.15396          39.7276       NO       
     FINAL_PART-1.15406          43.6999       NO       
     FINAL_PART-1.15447          43.7228       NO       
     FINAL_PART-1.15459          39.6545       NO       
     FINAL_PART-1.15460          38.4656       NO       
     FINAL_PART-1.15461          36.0099       NO       
     FINAL_PART-1.15476          43.0936       NO       
     FINAL_PART-1.15477          41.3817       NO       
     FINAL_PART-1.15640          42.5038       NO       
     FINAL_PART-1.15672          38.2202       NO       
     FINAL_PART-1.15683          39.6097       NO       
     FINAL_PART-1.16193          40.8118       NO       
     FINAL_PART-1.16194          43.5033       NO       
     FINAL_PART-1.16195          43.5626       NO       
     FINAL_PART-1.16196          43.6215       NO       
     FINAL_PART-1.16197          43.6798       NO       
     FINAL_PART-1.16198          43.7375       NO       
     FINAL_PART-1.16199          43.7947       NO       
     FINAL_PART-1.16200          43.8515       NO       
     FINAL_PART-1.16201          43.9077       NO       
     FINAL_PART-1.16202          43.9634       NO       
     FINAL_PART-1.16203          44.0185       NO       
     FINAL_PART-1.16204           44.073       NO       
     FINAL_PART-1.16205           44.127       NO       
     FINAL_PART-1.16206          44.1805       NO       
     FINAL_PART-1.16207          44.2335       NO       
     FINAL_PART-1.16208          44.2859       NO       
     FINAL_PART-1.16209          44.3378       NO       
     FINAL_PART-1.16210           44.389       NO       
     FINAL_PART-1.16211          44.4397       NO       
     FINAL_PART-1.16212          44.4898       NO       
     FINAL_PART-1.16213          44.5394       NO       
     FINAL_PART-1.16214          44.5885       NO       
     FINAL_PART-1.16215          44.6369       NO       
     FINAL_PART-1.16216          44.6847       NO       
     FINAL_PART-1.16217          44.7321       NO       
     FINAL_PART-1.16218          44.7789       NO       
     FINAL_PART-1.16219          44.8249       NO       
     FINAL_PART-1.16220          44.8704       NO       
     FINAL_PART-1.16221          44.9155       NO       
     FINAL_PART-1.16222          44.9601       NO       
     FINAL_PART-1.16245          37.5605       NO       
     FINAL_PART-1.20179          41.3557       NO       
     FINAL_PART-1.20311          42.5721       NO       
     FINAL_PART-1.20313           43.142       NO       
     FINAL_PART-1.20349          44.9779       NO       
     FINAL_PART-1.20350          44.3466       NO       
     FINAL_PART-1.20351          42.0296       NO       
     FINAL_PART-1.20375          39.7256       NO       
     FINAL_PART-1.20377          39.2071       NO       
     FINAL_PART-1.20378          38.7053       NO       
     FINAL_PART-1.20379          38.2247       NO       
     FINAL_PART-1.20557          40.8117       NO       
     FINAL_PART-1.20558          43.5657       NO       
     FINAL_PART-1.20562          41.3347       NO       
     FINAL_PART-1.20662          39.7413       NO       
     FINAL_PART-1.20697          42.0178       NO       
     FINAL_PART-1.20726          37.6149       NO       
     FINAL_PART-1.20893          43.7236       NO       
     FINAL_PART-1.20895          38.6431       NO       
     FINAL_PART-1.20931          40.0816       NO       
     FINAL_PART-1.21448          40.8118       NO       
     FINAL_PART-1.21449          43.5033       NO       
     FINAL_PART-1.21450          43.5626       NO       
     FINAL_PART-1.21451          43.6215       NO       
     FINAL_PART-1.21452          43.6798       NO       
     FINAL_PART-1.21453          43.7375       NO       
     FINAL_PART-1.21454          43.7947       NO       
     FINAL_PART-1.21455          43.8515       NO       
     FINAL_PART-1.21456          43.9077       NO       
     FINAL_PART-1.21457          43.9634       NO       
     FINAL_PART-1.21458          44.0185       NO       
     FINAL_PART-1.21459           44.073       NO       
     FINAL_PART-1.21460           44.127       NO       
     FINAL_PART-1.21461          44.1805       NO       
     FINAL_PART-1.21462          44.2335       NO       
     FINAL_PART-1.21463          44.2859       NO       
     FINAL_PART-1.21464          44.3378       NO       
     FINAL_PART-1.21465           44.389       NO       
     FINAL_PART-1.21466          44.4397       NO       
     FINAL_PART-1.21467          44.4899       NO       
     FINAL_PART-1.21468          44.5394       NO       
     FINAL_PART-1.21469          44.5884       NO       
     FINAL_PART-1.21470          44.6369       NO       
     FINAL_PART-1.21471          44.6847       NO       
     FINAL_PART-1.21472          44.7321       NO       
     FINAL_PART-1.21473          44.7789       NO       
     FINAL_PART-1.21474          44.8249       NO       
     FINAL_PART-1.21475          44.8704       NO       
     FINAL_PART-1.21476          44.9155       NO       
     FINAL_PART-1.21477          44.9602       NO       
     FINAL_PART-1.21500          42.4913       NO       
     FINAL_PART-1.25493          44.2595       NO       
     FINAL_PART-1.25494          43.1994       NO       
     FINAL_PART-1.25495          42.1797       NO       
     FINAL_PART-1.25496          41.1981       NO       
     FINAL_PART-1.25497          40.2538       NO       
     FINAL_PART-1.25498          39.3449       NO       
     FINAL_PART-1.25499          38.4697       NO       
     FINAL_PART-1.25500          37.6269       NO       
     FINAL_PART-1.25501           36.815       NO       
     FINAL_PART-1.25502           36.033       NO       
     FINAL_PART-1.25503          35.2793       NO       
     FINAL_PART-1.25504          34.5525       NO       
     FINAL_PART-1.25505          33.8514       NO       
     FINAL_PART-1.25532           44.473       NO       
     FINAL_PART-1.25533          43.4126       NO       
     FINAL_PART-1.25534           42.392       NO       
     FINAL_PART-1.25535          41.4099       NO       
     FINAL_PART-1.25536          40.4647       NO       
     FINAL_PART-1.25537          39.5543       NO       
     FINAL_PART-1.25538          38.6779       NO       
     FINAL_PART-1.25539           37.834       NO       
     FINAL_PART-1.25540          37.0204       NO       
     FINAL_PART-1.25541          36.2365       NO       
     FINAL_PART-1.25542          35.4812       NO       
     FINAL_PART-1.25543          34.7523       NO       
     FINAL_PART-1.25544          34.0494       NO       
     FINAL_PART-1.25580          44.1884       NO       
     FINAL_PART-1.25581          43.1665       NO       
     FINAL_PART-1.25582          42.1819       NO       
     FINAL_PART-1.25583          41.2332       NO       
     FINAL_PART-1.25584          40.3191       NO       
     FINAL_PART-1.25585           39.438       NO       
     FINAL_PART-1.25586          38.5887       NO       
     FINAL_PART-1.25587          37.7699       NO       
     FINAL_PART-1.25588          36.9801       NO       
     FINAL_PART-1.25589          36.2182       NO       
     FINAL_PART-1.25590          35.4832       NO       
     FINAL_PART-1.25591          34.7736       NO       
     FINAL_PART-1.25592          34.0885       NO       
     FINAL_PART-1.25593          33.4267       NO       
     FINAL_PART-1.25594          32.7873       NO       
     FINAL_PART-1.25595          32.1693       NO       
     FINAL_PART-1.25596          31.5718       NO       
     FINAL_PART-1.25597          30.9939       NO       
     FINAL_PART-1.25598          30.4348       NO       
     FINAL_PART-1.25599          29.8937       NO       
     FINAL_PART-1.25600          29.3698       NO       
     FINAL_PART-1.25601          28.8623       NO       
     FINAL_PART-1.25602          28.3707       NO       
     FINAL_PART-1.25603          27.8942       NO       
     FINAL_PART-1.25604          27.4323       NO       
     FINAL_PART-1.25605          26.9842       NO       
     FINAL_PART-1.25642          44.4796       NO       
     FINAL_PART-1.25643          43.7058       NO       
     FINAL_PART-1.25644          42.9531       NO       
     FINAL_PART-1.25645          42.2213       NO       
     FINAL_PART-1.25646          41.5093       NO       
     FINAL_PART-1.25647          40.8168       NO       
     FINAL_PART-1.25648          40.1431       NO       
     FINAL_PART-1.25649          39.4876       NO       
     FINAL_PART-1.25650          38.8501       NO       
     FINAL_PART-1.25651          38.2296       NO       
     FINAL_PART-1.25652          37.6256       NO       
     FINAL_PART-1.25653          37.0378       NO       
     FINAL_PART-1.25654          36.4656       NO       
     FINAL_PART-1.25655          35.9084       NO       
     FINAL_PART-1.25656          35.3657       NO       
     FINAL_PART-1.25657          34.8371       NO       
     FINAL_PART-1.25658          34.3222       NO       
     FINAL_PART-1.25659          34.3278       NO       
     FINAL_PART-1.25662           26.132       NO       
     FINAL_PART-1.25663          38.4631       NO       
     FINAL_PART-1.25664           31.939       NO       
     FINAL_PART-1.25665          32.3983       NO       
     FINAL_PART-1.25681          18.7619       NO       
     FINAL_PART-1.25682           22.563       NO       
     FINAL_PART-1.25683          28.3593       NO       
     FINAL_PART-1.25694            34.87       NO       
     FINAL_PART-1.25695          36.2078       NO       
     FINAL_PART-1.25744          38.4253       NO       
     FINAL_PART-1.25751          40.8206       NO       
     FINAL_PART-1.25752          41.6641       NO       
     FINAL_PART-1.25763          42.5333       NO       
     FINAL_PART-1.26226          43.8327       NO       
     FINAL_PART-1.26227          24.0249       NO       
     FINAL_PART-1.26323          21.7468       NO       
     FINAL_PART-1.26324          26.8058       NO       
     FINAL_PART-1.26325          38.8542       NO       
     FINAL_PART-1.26339          36.9288       NO       
     FINAL_PART-1.26355          39.9996       NO       
     FINAL_PART-1.26364          44.3509       NO       
     FINAL_PART-1.26848          19.0084       NO       
     FINAL_PART-1.26849           28.823       NO       
     FINAL_PART-1.26850          29.3805       NO       
     FINAL_PART-1.26851          31.9475       NO       
     FINAL_PART-1.26852          34.4311       NO       
     FINAL_PART-1.26853          35.5128       NO       
     FINAL_PART-1.26854          39.2014       NO       
     FINAL_PART-1.26917          44.0756       NO       
     FINAL_PART-1.27052          39.9283       NO       
     FINAL_PART-1.27162          34.4724       NO       
     FINAL_PART-1.27164          37.6687       NO       
     FINAL_PART-1.27166          43.4277       NO       
     FINAL_PART-1.27192          26.9636       NO       
     FINAL_PART-1.27351          41.3426       NO       
     FINAL_PART-1.28669          33.4895       NO       
     FINAL_PART-1.28898          36.9103       NO       
     FINAL_PART-1.38716           41.919       NO       
     FINAL_PART-1.38717          41.3331       NO       
     FINAL_PART-1.38719           39.387       NO       
     FINAL_PART-1.38720          42.4563       NO       
     FINAL_PART-1.38734          43.4134       NO       
     FINAL_PART-1.38736          41.2847       NO       
     FINAL_PART-1.38749          44.9189       NO       
     FINAL_PART-1.38750          40.5967       NO       
     FINAL_PART-1.38752          28.3997       NO       
     FINAL_PART-1.38753          28.0135       NO       
     FINAL_PART-1.38754          31.1158       NO       
     FINAL_PART-1.38755          35.4486       NO       
     FINAL_PART-1.38769          40.9887       NO       
     FINAL_PART-1.38771          34.8496       NO       
     FINAL_PART-1.38779          33.7238       NO       
     FINAL_PART-1.38780          32.6573       NO       
     FINAL_PART-1.38782          32.1372       NO       
     FINAL_PART-1.38800          31.6351       NO       
     FINAL_PART-1.39391          44.3182       NO       
     FINAL_PART-1.39398          41.9953       NO       
     FINAL_PART-1.39399          39.3473       NO       
     FINAL_PART-1.39792          44.1525       NO       
     FINAL_PART-1.39793          39.9406       NO       
     FINAL_PART-1.39794           28.999       NO       
     FINAL_PART-1.39795          31.1566       NO       
     FINAL_PART-1.40112          34.2775       NO       
     FINAL_PART-1.40120           43.094       NO       
     FINAL_PART-1.40122          33.1843       NO       
     FINAL_PART-1.40126          42.7008       NO       
     FINAL_PART-1.40128          40.5992       NO       
     FINAL_PART-1.40130          33.2664       NO       
     FINAL_PART-1.41882          42.1167       NO       
     FINAL_PART-1.51675          34.1727       NO       
     FINAL_PART-1.51676          34.6866       NO       
     FINAL_PART-1.51677          35.2141       NO       
     FINAL_PART-1.51678          35.7558       NO       
     FINAL_PART-1.51679          36.3121       NO       
     FINAL_PART-1.51680          36.8834       NO       
     FINAL_PART-1.51681          37.4703       NO       
     FINAL_PART-1.51682          38.0734       NO       
     FINAL_PART-1.51683          38.6931       NO       
     FINAL_PART-1.51684          39.3302       NO       
     FINAL_PART-1.51685          39.9849       NO       
     FINAL_PART-1.51686          40.6578       NO       
     FINAL_PART-1.51687          41.3498       NO       
     FINAL_PART-1.51688          42.0613       NO       
     FINAL_PART-1.51689          42.7928       NO       
     FINAL_PART-1.51690          43.5452       NO       
     FINAL_PART-1.51691          44.3188       NO       
     FINAL_PART-1.51728          34.3222       NO       
     FINAL_PART-1.51729          34.8371       NO       
     FINAL_PART-1.51730          35.3657       NO       
     FINAL_PART-1.51731          35.9084       NO       
     FINAL_PART-1.51732          36.4656       NO       
     FINAL_PART-1.51733          37.0378       NO       
     FINAL_PART-1.51734          37.6256       NO       
     FINAL_PART-1.51735          38.2295       NO       
     FINAL_PART-1.51736            38.85       NO       
     FINAL_PART-1.51737          39.4876       NO       
     FINAL_PART-1.51738          40.1431       NO       
     FINAL_PART-1.51739          40.8168       NO       
     FINAL_PART-1.51740          41.5093       NO       
     FINAL_PART-1.51741          42.2212       NO       
     FINAL_PART-1.51742          42.9531       NO       
     FINAL_PART-1.51743          43.7058       NO       
     FINAL_PART-1.51744          44.4796       NO       
  
  
  *step, name=Step-1, nlgeom=YES
  *step, name=Step-1, nlgeom=YES
  *output, field, variable=PRESELECT
  *output, history, variable=PRESELECT
  *step, name=Step-1, nlgeom=YES
  *step, name=Step-1, nlgeom=YES
  *static
  *boundary
  *dsload
  *dsload
  *output, field, variable=PRESELECT
  *output, history, variable=PRESELECT
  *endstep
  *step, name=Step-1, nlgeom=YES
  *static
  *boundary
  *endstep

     - (RAMP) OR (STEP) - INDICATE USE OF DEFAULT AMPLITUDES ASSOCIATED WITH THE STEP

     - (RAMP) OR (STEP) - INDICATE USE OF DEFAULT AMPLITUDES ASSOCIATED WITH THE STEP



                            P R O B L E M   S I Z E


          NUMBER OF ELEMENTS IS                                 51782
          NUMBER OF NODES IS                                    70995
          NUMBER OF NODES DEFINED BY THE USER                   70995
          TOTAL NUMBER OF VARIABLES IN THE MODEL               212985
          (DEGREES OF FREEDOM PLUS MAX NO. OF ANY LAGRANGE MULTIPLIER
           VARIABLES. INCLUDE *PRINT,SOLVE=YES TO GET THE ACTUAL NUMBER.)



                              END OF USER INPUT PROCESSING



     JOB TIME SUMMARY
       USER TIME (SEC)      =      8.9    
       SYSTEM TIME (SEC)    =      1.1    
       TOTAL CPU TIME (SEC) =      10.    
       WALLCLOCK TIME (SEC) =            3
1

   Abaqus 2025                                  Date 23-Feb-2026   Time 15:08:52
   For use by UNIVERSITAET STUTTGART under license from Dassault Systemes or its subsidiary.

                                                                                               STEP    1  INCREMENT    1
                                                                                          TIME COMPLETED IN THIS STEP   0.00    


                        S T E P       1     S T A T I C   A N A L Y S I S


                                                                                          

     AUTOMATIC TIME CONTROL WITH -
          A SUGGESTED INITIAL TIME INCREMENT OF                 1.00    
          AND A TOTAL TIME PERIOD OF                            1.00    
          THE MINIMUM TIME INCREMENT ALLOWED IS                1.000E-05
          THE MAXIMUM TIME INCREMENT ALLOWED IS                 1.00    

     LINEAR EQUATION SOLVER TYPE         DIRECT SPARSE

          LARGE DISPLACEMENT THEORY WILL BE USED
  
                   M E M O R Y   E S T I M A T E
  
 PROCESS      FLOATING PT       MINIMUM MEMORY        MEMORY TO
              OPERATIONS           REQUIRED          MINIMIZE I/O
             PER ITERATION           (MB)               (MB)
  
     1          2.64E+10              142                772
  
 NOTE:
      (1) SINCE ABAQUS DOES NOT PRE-ALLOCATE MEMORY AND ONLY ALLOCATES MEMORY AS NEEDED DURING THE ANALYSIS,
          THE MEMORY REQUIREMENT PRINTED HERE CAN ONLY BE VIEWED AS A GENERAL GUIDELINE BASED ON THE BEST
          KNOWLEDGE AVAILABLE AT THE BEGINNING OF A STEP BEFORE THE SOLUTION PROCESS HAS BEGUN.
      (2) THE ESTIMATE IS NORMALLY UPDATED AT THE BEGINNING OF EVERY STEP. IT IS THE MAXIMUM VALUE OF THE
          ESTIMATE FROM THE CURRENT STEP TO THE LAST STEP OF THE ANALYSIS, WITH UNSYMMETRIC SOLUTION TAKEN
          INTO ACCOUNT IF APPLICABLE. 
      (3) SINCE THE ESTIMATE IS BASED ON THE ACTIVE DEGREES OF FREEDOM IN THE FIRST ITERATION OF THE 
          CURRENT STEP, THE MEMORY ESTIMATE MIGHT BE SIGNIFICANTLY DIFFERENT THAN ACTUAL USAGE FOR 
          PROBLEMS WITH SUBSTANTIAL CHANGES IN ACTIVE DEGREES OF FREEDOM BETWEEN STEPS (OR EVEN WITHIN
          THE SAME STEP). EXAMPLES ARE: PROBLEMS WITH SIGNIFICANT CONTACT CHANGES, PROBLEMS WITH MODEL
          CHANGE, PROBLEMS WITH BOTH STATIC STEP AND STEADY STATE DYNAMIC PROCEDURES WHERE ACOUSTIC 
          ELEMENTS WILL ONLY BE ACTIVATED IN THE STEADY STATE DYNAMIC STEPS.
      (4) FOR MULTI-PROCESS EXECUTION, THE ESTIMATED VALUE OF FLOATING POINT OPERATIONS FOR EACH PROCESS
          IS BASED ON AN INITIAL SCHEDULING OF OPERATIONS AND MIGHT NOT REFLECT THE ACTUAL FLOATING 
          POINT OPERATIONS COMPLETED ON EACH PROCESS. OPERATIONS ARE DYNAMICALLY BALANCED DURING EXECUTION, 
          SO THE ACTUAL BALANCE OF OPERATIONS BETWEEN PROCESSES IS EXPECTED TO BE BETTER THAN THE ESTIMATE
          PRINTED HERE.
      (5) THE UPPER LIMIT OF MEMORY THAT CAN BE ALLOCATED BY ABAQUS WILL IN GENERAL DEPEND ON THE VALUE OF
          THE "MEMORY" PARAMETER AND THE AMOUNT OF PHYSICAL MEMORY AVAILABLE ON THE MACHINE. PLEASE SEE
          THE "ABAQUS ANALYSIS USER'S MANUAL" FOR MORE DETAILS. THE ACTUAL USAGE OF MEMORY AND OF DISK
          SPACE FOR SCRATCH DATA WILL DEPEND ON THIS UPPER LIMIT AS WELL AS THE MEMORY REQUIRED TO MINIMIZE
          I/O. IF THE MEMORY UPPER LIMIT IS GREATER THAN THE MEMORY REQUIRED TO MINIMIZE I/O, THEN THE ACTUAL
          MEMORY USAGE WILL BE CLOSE TO THE ESTIMATED "MEMORY TO MINIMIZE I/O" VALUE, AND THE SCRATCH DISK
          USAGE WILL BE CLOSE-TO-ZERO; OTHERWISE, THE ACTUAL MEMORY USED WILL BE CLOSE TO THE PREVIOUSLY
          MENTIONED MEMORY LIMIT, AND THE SCRATCH DISK USAGE WILL BE ROUGHLY PROPORTIONAL TO THE DIFFERENCE
          BETWEEN THE ESTIMATED "MEMORY TO MINIMIZE I/O" AND THE MEMORY UPPER LIMIT. HOWEVER ACCURATE
          ESTIMATE OF THE SCRATCH DISK SPACE IS NOT POSSIBLE.
      (6) USING "*RESTART, WRITE" CAN GENERATE A LARGE AMOUNT OF DATA WRITTEN IN THE WORK DIRECTORY.



                              ANALYSIS COMPLETE
                              WITH      2 ERROR MESSAGES ON THE MSG FILE
                              AND       1 WARNING MESSAGES ON THE DAT FILE
                              AND      31 WARNING MESSAGES ON THE MSG FILE
                                       28 WARNINGS ARE FOR NEGATIVE EIGENVALUES



     JOB TIME SUMMARY
       USER TIME (SEC)      =     1.60E+03
       SYSTEM TIME (SEC)    =     3.33E+02
       TOTAL CPU TIME (SEC) =     1.93E+03
       WALLCLOCK TIME (SEC) =          689
