 Abaqus/Standard 2025                  DATE 22-Feb-2026 TIME 14:30:22
 SUMMARY OF JOB INFORMATION:
 STEP  INC ATT SEVERE EQUIL TOTAL  TOTAL      STEP       INC OF       DOF    IF
               DISCON ITERS ITERS  TIME/    TIME/LPF    TIME/LPF    MONITOR RIKS
               ITERS               FREQ
   1     1   1U    0     2     2  0.00       0.00       1.000     
   1     1   2U    0     2     2  0.00       0.00       0.2500    
   1     1   3U    0     3     3  0.00       0.00       0.06250   
   1     1   4U    0     4     4  0.00       0.00       0.01562   
   1     1   5     0     6     6  0.00391    0.00391    0.003906  
   1     2   1     0     3     3  0.00781    0.00781    0.003906  
   1     3   1     0     3     3  0.0117     0.0117     0.003906  
   1     4   1     0     7     7  0.0176     0.0176     0.005859  
   1     5   1     0     4     4  0.0234     0.0234     0.005859  
   1     6   1     0     4     4  0.0293     0.0293     0.005859  
   1     7   1     0     4     4  0.0381     0.0381     0.008789  
   1     8   1     0     5     5  0.0513     0.0513     0.01318   
   1     9   1     0     5     5  0.0645     0.0645     0.01318   
   1    10   1     0     4     4  0.0776     0.0776     0.01318   
   1    11   1     0     4     4  0.0908     0.0908     0.01318   
   1    12   1     0     4     4  0.111      0.111      0.01978   
   1    13   1     0     5     5  0.140      0.140      0.02966   
   1    14   1     0     5     5  0.170      0.170      0.02966   
   1    15   1     0     4     4  0.200      0.200      0.02966   
   1    16   1     0     4     4  0.229      0.229      0.02966   
   1    17   1     0     5     5  0.274      0.274      0.04449   
   1    18   1     0     5     5  0.318      0.318      0.04449   
   1    19   1     0     5     5  0.363      0.363      0.04449   
   1    20   1     0     5     5  0.407      0.407      0.04449   
   1    21   1     0     5     5  0.452      0.452      0.04449   
   1    22   1     0     6     6  0.496      0.496      0.04449   
   1    23   1     0     6     6  0.541      0.541      0.04449   
   1    24   1     0     8     8  0.585      0.585      0.04449   
   1    25   1     0     9     9  0.630      0.630      0.04449   
   1    26   1     0     8     8  0.674      0.674      0.04449   
   1    27   1U    0     5     5  0.674      0.674      0.04449   
   1    27   2     0     4     4  0.685      0.685      0.01112   
   1    28   1     0     4     4  0.696      0.696      0.01112   
   1    29   1     0     4     4  0.713      0.713      0.01669   
   1    30   1     0     6     6  0.738      0.738      0.02503   
   1    31   1     0     6     6  0.763      0.763      0.02503   
   1    32   1     0     6     6  0.788      0.788      0.02503   
   1    33   1     0     6     6  0.813      0.813      0.02503   
   1    34   1     0     6     6  0.838      0.838      0.02503   
   1    35   1     0     6     6  0.863      0.863      0.02503   
   1    36   1     0     6     6  0.888      0.888      0.02503   
   1    37   1U    0     5     5  0.888      0.888      0.02503   
   1    37   2     0     4     4  0.895      0.895      0.006257  
   1    38   1     0     4     4  0.901      0.901      0.006257  
   1    39   1     0     4     4  0.910      0.910      0.009386  
   1    40   1     0     5     5  0.924      0.924      0.01408   
   1    41   1     0     4     4  0.938      0.938      0.01408   
   1    42   1     0     6     6  0.952      0.952      0.01408   
   1    43   1U    0     5     5  0.952      0.952      0.01408   
   1    43   2     0     4     4  0.956      0.956      0.003520  
   1    44   1     0     3     3  0.959      0.959      0.003520  
   1    45   1     0     2     2  0.965      0.965      0.005279  
   1    46   1     0     3     3  0.973      0.973      0.007919  
   1    47   1     0     4     4  0.985      0.985      0.01188   
   1    48   1     0     8     8  1.00       1.00       0.01542   
                          
 THE ANALYSIS HAS COMPLETED SUCCESSFULLY
