1

   Abaqus 2025                                  Date 23-Feb-2026   Time 13:56:43
   For use by UNIVERSITAET STUTTGART under license from Dassault Systemes or its subsidiary.



                         The Abaqus Software is a product of:

                           Dassault Systemes Americas Corp.
                           1301 Atwood Avenue, Suite 101W
                              Johnston, RI 02919, USA
 


                   The Abaqus Software is available only under license
                   from Dassault Systemes or its subsidiary and may be
                   used or reproduced only in accordance with the terms
                   of such license.
 
                          On machine MIB40-GAUSS 
                          you are authorized to run
                          Abaqus/Standard until 31-Mar-2025

                          Your site id is: 200000000017928 


 
                    For assistance or any other information you may
                    obtain contact information for your local office
                    from the world wide web at:

                      https://www.3ds.com/products-services/simulia/services-support/

 
                * * * * * * * * * * * * * * * * * * * * * * * * * * * * * * 
                *                                                         * 
                *                   *****************                     * 
                *                   *  N O T I C E  *                     * 
                *                   *****************                     * 
                *                                                         * 
                *                                                         * 
                *                       Abaqus 2025                       * 
                *                                                         * 
                *       BUILD ID: 2024_09_20-15.00.46 RELr427 198590      * 
                *                                                         * 
                *                                                         * 
                *  Please make sure you are using                         * 
                *  release Abaqus 2025 manuals                            * 
                *  plus the notes accompanying this release.              * 
                *                                                         * 
                *                                                         * 
                *                                                         * 
                *                                                         * 
                *                                                         * 
                *   This program may not be used for commercial purposes  * 
                *           without payment of a commercial fee.          * 
                *                                                         * 
                * * * * * * * * * * * * * * * * * * * * * * * * * * * * * * 


 



     PROCESSING PART, INSTANCE, AND ASSEMBLY INFORMATION
   *******************************************************


     END PROCESSING PART, INSTANCE, AND ASSEMBLY INFORMATION
   ***********************************************************




     OPTIONS BEING PROCESSED
   ***************************


  *Element, type=C3D8R
  *Elset, elset=ASSEMBLY_FINAL_PART-1__PICKEDSET26
  *Elset, elset=ASSEMBLY_FINAL_PART-1__PICKEDSET27
  *Elset, elset=ASSEMBLY__PICKEDSET47
  *Elset, elset=ASSEMBLY___PICKEDSURF45_S2
  *Elset, elset=ASSEMBLY___PICKEDSURF48_S2
  *heading
  *material, name=PLYWOOD_MATERIAL
  *density
  *elastic
  *material, name=TAPE_MATERIAL
  *density
  *elastic
  *solidsection, elset=ASSEMBLY_FINAL_PART-1__PICKEDSET26, material=TAPE_MATERIAL
  *solidsection, elset=ASSEMBLY_FINAL_PART-1__PICKEDSET27, material=PLYWOOD_MATERIAL
  *solidsection, elset=ASSEMBLY_FINAL_PART-1__PICKEDSET26, material=TAPE_MATERIAL
  *solidsection, elset=ASSEMBLY_FINAL_PART-1__PICKEDSET27, material=PLYWOOD_MATERIAL
  *surface, type=ELEMENT, name=ASSEMBLY__PICKEDSURF45
  *surface, type=ELEMENT, name=ASSEMBLY__PICKEDSURF48
  *surface, type=ELEMENT, name=ASSEMBLY__PICKEDSURF45
  *surface, type=ELEMENT, name=ASSEMBLY__PICKEDSURF48
  *boundary
  *boundary
  *surface, type=ELEMENT, name=ASSEMBLY__PICKEDSURF45
  *surface, type=ELEMENT, name=ASSEMBLY__PICKEDSURF48
  *output, field, variable=PRESELECT
  *output, history, variable=PRESELECT
  *output, field, variable=PRESELECT
  *output, history, variable=PRESELECT
  *output, field, variable=PRESELECT
  *output, history, variable=PRESELECT
  
                               E L E M E N T   Q U A L I T Y  C H E C K S        
  
  
 ***NOTES: DISTORTED ISOPARAMETRIC ELEMENTS: ANGLE BETWEEN ISOPARAMETRIC LINES 
           IS LESS THAN 45 DEGREES OR GREATER THAN 135 DEGREES.
  
           TETRAHEDRAL QUALITY MEASURE: VOLUME OF TETRAHEDRON DIVIDED BY THE 
           VOLUME OF EQUILATERAL TETRAHEDRON WITH SAME CIRCUMSPHERE RADIUS; 
           0 FOR DEGENERATE TETRAHEDRON AND 1 FOR EQUILATERIAL TETRAHEDRON. IT 
           IS RECOMMENDED THAT THE TETRAHEDRAL QUALITY MEASURE BE GREATER THAN 
           0.02, THE MIN INTERIOR (DIHEDRAL) ANGLE BE GREATER THAN 10 DEGREES, 
           AND THE MAX INTERIOR (DIHEDRAL) ANGLE BE LESS THAN 160 DEGREES. 
  
           MODIFIED TETRAHEDRAL QUALITY MEASURE: ANGLES BETWEEN THE TWO LINE 
           SEGMENTS ON EACH EDGE; THE EDGES OF MODIFIED TETRAHEDRAL SHOULD BE 
           AS STRAIGHT AS POSSIBLE. IT IS RECOMMENDED THAT THE ANGLE BETWEEN 
           THE TWO LINE SEGMENTS ON EACH EDGE IS BETWEEN 160 AND 180 DEGREES. 
  
           TRIANGULAR QUALITY MEASURE: AREA OF TRIANGLE DIVIDED BY THE AREA OF 
           EQUILATERAL TRIANGLE WITH SAME CIRCUMCIRCLE RADIUS; 0 FOR DEGENERATE 
           TRIANGLE AND 1 FOR EQUILATERAL TRIANGLE. IT IS RECOMMENDED THAT THE
           TRIANGULAR QUALITY MEASURE BE GREATER THAN 0.01, THE MIN INTERIOR 
           ANGLE BE GREATER THAN 10 DEGREES, AND THE MAX INTERIOR ANGLE BE LESS 
           THAN 160 DEGREES. 
  
           NODAL ADJUSTMENTS ARISING FROM CONTACT INTERACTIONS AND/OR TIE 
           CONSTRAINTS CAN CAUSE SEVERE ELEMENT DISTORTION. IT MAY BE NECESSARY 
           TO REMESH IN ORDER TO REDUCE THE AMOUNT OF ADJUSTMENT. 
  
           IMPROVED GEOMETRY CHECKS IMPLEMENTED IN Abaqus V6.5 ARE MORE STRICT 
           THAN GEOMETRY CHECKS IN PREVIOUS RELEASES. THE NEW GEOMETRY CHECKS 
           FOUND A SERIOUS PROBLEM WITH THE MESH GEOMETRY AS INDICATED IN THE 
           ERROR OR WARNING MESSAGE BELOW. CORRECT RESULTS MAY NOT BE OBTAINED 
           WITH SUCH A MESH. REMESHING IS RECOMMENDED.
  

 ***WARNING: 274 elements are distorted. Either the isoparametric angles are 
             out of the suggested limits or the triangular or tetrahedral 
             quality measure is bad. The elements have been identified in 
             element set WarnElemDistorted.

 ***ERROR: The volume of 14 elements is zero, small, or negative. Check 
           coordinates or node numbering, or modify the mesh seed. In the case 
           of a tetrahedron this error may indicate that all nodes are located 
           very nearly in a plane. The elements have been identified in element 
           set ErrElemVolSmallNegZero.
 ***NOTE: DUE TO AN INPUT ERROR THE ANALYSIS PRE-PROCESSOR HAS BEEN UNABLE TO 
          INTERPRET SOME DATA.  SUBSEQUENT ERRORS MAY BE CAUSED BY THIS OMISSION
  
 --------------------------------------------------------------------------------
 Distorted isoparametric elements
  
        Element          Min/max angle   Adjusted nodes 
 ---------------------- ---------------- -------------- 
        FINAL_PART-1.35          8.77825       NO       
        FINAL_PART-1.36          8.91335       NO       
        FINAL_PART-1.37          5.87768       NO       
        FINAL_PART-1.38          17.1627       NO       
        FINAL_PART-1.39          5.96895       NO       
        FINAL_PART-1.40           17.415       NO       
        FINAL_PART-1.41          17.1627       NO       
        FINAL_PART-1.42          5.87769       NO       
        FINAL_PART-1.43           17.415       NO       
        FINAL_PART-1.44          5.96895       NO       
        FINAL_PART-1.45          8.77825       NO       
        FINAL_PART-1.46          8.91335       NO       
        FINAL_PART-1.47          39.4267       NO       
        FINAL_PART-1.48          39.0809       NO       
        FINAL_PART-1.49          40.6839       NO       
        FINAL_PART-1.50          9.75866       NO       
        FINAL_PART-1.51          21.6513       NO       
        FINAL_PART-1.52          29.5187       NO       
        FINAL_PART-1.54          26.0916       NO       
        FINAL_PART-1.56          44.7077       NO       
        FINAL_PART-1.57          9.08835       NO       
        FINAL_PART-1.59          11.8609       NO       
        FINAL_PART-1.60           42.853       NO       
        FINAL_PART-1.61          39.0809       NO       
        FINAL_PART-1.62          38.0447       NO       
        FINAL_PART-1.73          26.0916       NO       
        FINAL_PART-1.74          39.0809       NO       
        FINAL_PART-1.75          39.4267       NO       
        FINAL_PART-1.77          9.75866       NO       
        FINAL_PART-1.79          29.5187       NO       
        FINAL_PART-1.80          21.6376       NO       
        FINAL_PART-1.81          40.6839       NO       
        FINAL_PART-1.82          44.7077       NO       
        FINAL_PART-1.83            9.101       NO       
        FINAL_PART-1.85           11.856       NO       
        FINAL_PART-1.87          39.0809       NO       
        FINAL_PART-1.88           42.853       NO       
        FINAL_PART-1.94          38.0447       NO       
       FINAL_PART-1.103          9.61128       NO       
       FINAL_PART-1.104          30.7351       NO       
       FINAL_PART-1.105          29.9015       NO       
       FINAL_PART-1.109          27.7118       NO       
       FINAL_PART-1.110          37.4966       NO       
       FINAL_PART-1.111          14.1702       NO       
       FINAL_PART-1.116          8.86561       NO       
       FINAL_PART-1.122          32.4493       NO       
       FINAL_PART-1.125          40.3922       NO       
       FINAL_PART-1.127          25.3571       NO       
       FINAL_PART-1.129          26.6188       NO       
       FINAL_PART-1.130          18.2698       NO       
       FINAL_PART-1.131          21.0761       NO       
       FINAL_PART-1.133          24.1485       NO       
       FINAL_PART-1.135          20.3751       NO       
       FINAL_PART-1.136          21.7588       NO       
       FINAL_PART-1.138          7.77477       NO       
       FINAL_PART-1.139           42.321       NO       
       FINAL_PART-1.140          26.6387       NO       
       FINAL_PART-1.141          17.1044       NO       
       FINAL_PART-1.147          8.79601       NO       
       FINAL_PART-1.148          11.7901       NO       
       FINAL_PART-1.149          24.9013       NO       
       FINAL_PART-1.150          8.79598       NO       
       FINAL_PART-1.151          5.30424       NO       
       FINAL_PART-1.152          32.0544       NO       
       FINAL_PART-1.153          11.7901       NO       
       FINAL_PART-1.154          7.13847       NO       
       FINAL_PART-1.158          34.2486       NO       
       FINAL_PART-1.162          20.1638       NO       
       FINAL_PART-1.164          43.9374       NO       
       FINAL_PART-1.166          12.4132       NO       
       FINAL_PART-1.167          43.9998       NO       
       FINAL_PART-1.168          18.8904       NO       
       FINAL_PART-1.169          9.67981       NO       
       FINAL_PART-1.172          39.6092       NO       
       FINAL_PART-1.175          12.3797       NO       
       FINAL_PART-1.178          11.2311       NO       
       FINAL_PART-1.184          44.9209       NO       
       FINAL_PART-1.205          32.8149       NO       
       FINAL_PART-1.206          41.0799       NO       
       FINAL_PART-1.208          16.6567       NO       
       FINAL_PART-1.209          40.3994       NO       
       FINAL_PART-1.212          22.3327       NO       
       FINAL_PART-1.215          43.7436       NO       
       FINAL_PART-1.216          19.2781       NO       
       FINAL_PART-1.217          11.4537       NO       
       FINAL_PART-1.218          32.9529       NO       
       FINAL_PART-1.220          41.0604       NO       
       FINAL_PART-1.221          9.28102       NO       
       FINAL_PART-1.222          44.8476       NO       
       FINAL_PART-1.224          11.6446       NO       
       FINAL_PART-1.227          32.0275       NO       
       FINAL_PART-1.228          35.2298       NO       
       FINAL_PART-1.229          44.6477       NO       
       FINAL_PART-1.231          38.5766       NO       
       FINAL_PART-1.238           39.597       NO       
       FINAL_PART-1.240          26.9991       NO       
       FINAL_PART-1.242          34.6183       NO       
       FINAL_PART-1.244          44.6918       NO       
       FINAL_PART-1.249          11.6575       NO       
       FINAL_PART-1.250          11.7901       NO       
       FINAL_PART-1.251           7.0567       NO       
       FINAL_PART-1.252          11.6574       NO       
       FINAL_PART-1.253          31.7553       NO       
       FINAL_PART-1.254          7.13847       NO       
       FINAL_PART-1.255          11.7901       NO       
       FINAL_PART-1.256          32.0543       NO       
       FINAL_PART-1.257          8.25331       NO       
       FINAL_PART-1.258          11.0395       NO       
       FINAL_PART-1.259          30.1227       NO       
       FINAL_PART-1.260           10.946       NO       
       FINAL_PART-1.261          6.61907       NO       
       FINAL_PART-1.262          4.73823       NO       
       FINAL_PART-1.263          37.9679       NO       
       FINAL_PART-1.264          14.5811       NO       
       FINAL_PART-1.265          8.87097       NO       
       FINAL_PART-1.266          6.36126       NO       
       FINAL_PART-1.269          8.25331       NO       
       FINAL_PART-1.270          11.0395       NO       
       FINAL_PART-1.271          4.73823       NO       
       FINAL_PART-1.272          6.61907       NO       
       FINAL_PART-1.273           10.946       NO       
       FINAL_PART-1.274          30.1227       NO       
       FINAL_PART-1.275          6.36125       NO       
       FINAL_PART-1.276          8.87096       NO       
       FINAL_PART-1.277          14.5811       NO       
       FINAL_PART-1.278          37.9679       NO       
       FINAL_PART-1.282          44.0072       NO       
       FINAL_PART-1.283          19.8556       NO       
       FINAL_PART-1.284          12.3071       NO       
       FINAL_PART-1.285          10.7766       NO       
       FINAL_PART-1.290          36.9168       NO       
       FINAL_PART-1.296          29.8491       NO       
       FINAL_PART-1.297          5.02122       NO       
       FINAL_PART-1.298          12.5623       NO       
       FINAL_PART-1.302          12.1868       NO       
       FINAL_PART-1.318          35.6093       NO       
       FINAL_PART-1.323          44.3081       NO       
       FINAL_PART-1.333          12.7951       NO       
       FINAL_PART-1.334           15.055       NO       
       FINAL_PART-1.335          32.5471       NO       
       FINAL_PART-1.339          22.1644       NO       
       FINAL_PART-1.341          44.0072       NO       
       FINAL_PART-1.343          8.68507       NO       
       FINAL_PART-1.347          13.2402       NO       
       FINAL_PART-1.348          6.24062       NO       
       FINAL_PART-1.360          43.1159       NO       
       FINAL_PART-1.363          44.4603       NO       
       FINAL_PART-1.373          8.68022       NO       
       FINAL_PART-1.374          11.5793       NO       
       FINAL_PART-1.375          4.76024       NO       
       FINAL_PART-1.376          5.81149       NO       
       FINAL_PART-1.377           7.4553       NO       
       FINAL_PART-1.378          10.3816       NO       
       FINAL_PART-1.379          16.9793       NO       
       FINAL_PART-1.380          42.4901       NO       
       FINAL_PART-1.381          6.37696       NO       
       FINAL_PART-1.382          7.77826       NO       
       FINAL_PART-1.383          9.96093       NO       
       FINAL_PART-1.384          13.8135       NO       
       FINAL_PART-1.385          22.2833       NO       
       FINAL_PART-1.393          12.9145       NO       
       FINAL_PART-1.394          16.1551       NO       
       FINAL_PART-1.396          35.7435       NO       
       FINAL_PART-1.397          29.2394       NO       
       FINAL_PART-1.403          43.8794       NO       
       FINAL_PART-1.404          36.7941       NO       
       FINAL_PART-1.405          31.4644       NO       
       FINAL_PART-1.409          9.35275       NO       
       FINAL_PART-1.410           38.535       NO       
       FINAL_PART-1.411          38.6487       NO       
       FINAL_PART-1.412          39.1714       NO       
       FINAL_PART-1.413          39.7958       NO       
       FINAL_PART-1.414          11.5292       NO       
       FINAL_PART-1.415          5.37098       NO       
       FINAL_PART-1.439           32.433       NO       
       FINAL_PART-1.440          32.7951       NO       
       FINAL_PART-1.441          33.3716       NO       
       FINAL_PART-1.442          33.9823       NO       
       FINAL_PART-1.448          36.7941       NO       
       FINAL_PART-1.449          18.0473       NO       
       FINAL_PART-1.450          15.8407       NO       
       FINAL_PART-1.451          36.7369       NO       
       FINAL_PART-1.453          43.8199       NO       
       FINAL_PART-1.459          31.4644       NO       
       FINAL_PART-1.460          43.8794       NO       
       FINAL_PART-1.467          6.39993       NO       
       FINAL_PART-1.468          13.6428       NO       
       FINAL_PART-1.469          38.6389       NO       
       FINAL_PART-1.470          39.1718       NO       
       FINAL_PART-1.471          39.7858       NO       
       FINAL_PART-1.472          41.0258       NO       
       FINAL_PART-1.473          10.6728       NO       
       FINAL_PART-1.498          32.7083       NO       
       FINAL_PART-1.499           33.372       NO       
       FINAL_PART-1.500          34.0591       NO       
       FINAL_PART-1.501          35.1588       NO       
       FINAL_PART-1.503          11.5058       NO       
       FINAL_PART-1.504          11.5793       NO       
       FINAL_PART-1.506           22.152       NO       
       FINAL_PART-1.507          13.7268       NO       
       FINAL_PART-1.508          9.89725       NO       
       FINAL_PART-1.509          7.72813       NO       
       FINAL_PART-1.510          6.33568       NO       
       FINAL_PART-1.512          22.2834       NO       
       FINAL_PART-1.513          13.8135       NO       
       FINAL_PART-1.514          9.96094       NO       
       FINAL_PART-1.515          7.77827       NO       
       FINAL_PART-1.516          6.37696       NO       
       FINAL_PART-1.519          42.4098       NO       
       FINAL_PART-1.520          16.9344       NO       
       FINAL_PART-1.521          10.3531       NO       
       FINAL_PART-1.522           7.4346       NO       
       FINAL_PART-1.523          5.79529       NO       
       FINAL_PART-1.524          4.74695       NO       
       FINAL_PART-1.525          4.01926       NO       
       FINAL_PART-1.527          22.1937       NO       
       FINAL_PART-1.528          13.7543       NO       
       FINAL_PART-1.529          9.91745       NO       
       FINAL_PART-1.530          7.74405       NO       
       FINAL_PART-1.531          6.34879       NO       
       FINAL_PART-1.532          5.37829       NO       
       FINAL_PART-1.533          7.43461       NO       
       FINAL_PART-1.534          9.91745       NO       
       FINAL_PART-1.541          7.98729       NO       
       FINAL_PART-1.543          6.24872       NO       
       FINAL_PART-1.544          10.7294       NO       
       FINAL_PART-1.545          15.8196       NO       
       FINAL_PART-1.551          31.6098       NO       
       FINAL_PART-1.552          43.2688       NO       
       FINAL_PART-1.564          19.4368       NO       
       FINAL_PART-1.565          28.4611       NO       
       FINAL_PART-1.566          5.18517       NO       
       FINAL_PART-1.572          42.6912       NO       
       FINAL_PART-1.578           27.746       NO       
       FINAL_PART-1.584          40.6873       NO       
       FINAL_PART-1.585          33.0371       NO       
       FINAL_PART-1.587          6.26909       NO       
       FINAL_PART-1.588           22.068       NO       
       FINAL_PART-1.613          30.8122       NO       
       FINAL_PART-1.614           43.346       NO       
       FINAL_PART-1.646           40.915       NO       
       FINAL_PART-1.647          32.0724       NO       
       FINAL_PART-1.663          34.1035       NO       
       FINAL_PART-1.664          36.0688       NO       
       FINAL_PART-1.666          18.4009       NO       
       FINAL_PART-1.667          12.5041       NO       
       FINAL_PART-1.669          28.6027       NO       
       FINAL_PART-1.670          7.32533       NO       
       FINAL_PART-1.671          7.83257       NO       
       FINAL_PART-1.680          31.5603       NO       
       FINAL_PART-1.687          42.5565       NO       
       FINAL_PART-1.702          9.31461       NO       
       FINAL_PART-1.703          42.7775       NO       
       FINAL_PART-1.710          37.5826       NO       
       FINAL_PART-1.711           33.127       NO       
       FINAL_PART-1.712          14.1925       NO       
       FINAL_PART-1.743          30.7798       NO       
       FINAL_PART-1.750          42.3753       NO       
       FINAL_PART-1.773          37.0285       NO       
       FINAL_PART-1.774          32.3287       NO       
       FINAL_PART-1.785          9.87001       NO       
       FINAL_PART-1.786          9.91745       NO       
       FINAL_PART-1.787           5.3522       NO       
       FINAL_PART-1.788          6.31805       NO       
       FINAL_PART-1.789           7.7067       NO       
       FINAL_PART-1.790             9.87       NO       
       FINAL_PART-1.791          13.6897       NO       
       FINAL_PART-1.792          22.0958       NO       
       FINAL_PART-1.794          5.37829       NO       
       FINAL_PART-1.795          6.34878       NO       
       FINAL_PART-1.796          7.74404       NO       
       FINAL_PART-1.797          9.91744       NO       
       FINAL_PART-1.798          13.7543       NO       
       FINAL_PART-1.799          22.1936       NO       
  
  
 --------------------------------------------------------------------------------
 Elements with small volume
  
        Element         Adjusted nodes 
 ---------------------- -------------- 
        FINAL_PART-1.55       NO       
        FINAL_PART-1.78       NO       
       FINAL_PART-1.103       NO       
       FINAL_PART-1.104       NO       
       FINAL_PART-1.109       NO       
       FINAL_PART-1.116       NO       
       FINAL_PART-1.117       NO       
       FINAL_PART-1.122       NO       
       FINAL_PART-1.125       NO       
       FINAL_PART-1.127       NO       
       FINAL_PART-1.136       NO       
       FINAL_PART-1.138       NO       
       FINAL_PART-1.207       NO       
       FINAL_PART-1.215       NO       
  
  *step, name=Step-1, nlgeom=YES
  *step, name=Step-1, nlgeom=YES
  *output, field, variable=PRESELECT
  *output, history, variable=PRESELECT
  *step, name=Step-1, nlgeom=YES
  *step, name=Step-1, nlgeom=YES
  *static
  *boundary
  *dsload
  *dsload
  *output, field, variable=PRESELECT
  *output, history, variable=PRESELECT
  *endstep
  *step, name=Step-1, nlgeom=YES
  *static
  *boundary
  *endstep

     - (RAMP) OR (STEP) - INDICATE USE OF DEFAULT AMPLITUDES ASSOCIATED WITH THE STEP

     - (RAMP) OR (STEP) - INDICATE USE OF DEFAULT AMPLITUDES ASSOCIATED WITH THE STEP



                            P R O B L E M   S I Z E


          NUMBER OF ELEMENTS IS                                   800
          NUMBER OF NODES IS                                     1673
          NUMBER OF NODES DEFINED BY THE USER                    1673
          TOTAL NUMBER OF VARIABLES IN THE MODEL                 5019
          (DEGREES OF FREEDOM PLUS MAX NO. OF ANY LAGRANGE MULTIPLIER
           VARIABLES. INCLUDE *PRINT,SOLVE=YES TO GET THE ACTUAL NUMBER.)





          THE PROGRAM HAS DISCOVERED     1 FATAL ERRORS

               ** EXECUTION IS TERMINATED **



                              END OF USER INPUT PROCESSING



     JOB TIME SUMMARY
       USER TIME (SEC)      =      1.0    
       SYSTEM TIME (SEC)    =     0.20    
       TOTAL CPU TIME (SEC) =      1.2    
       WALLCLOCK TIME (SEC) =            0
