1

   Abaqus 2025                                  Date 22-Feb-2026   Time 23:41:27
   For use by UNIVERSITAET STUTTGART under license from Dassault Systemes or its subsidiary.

                                                                                 
                                                                                 
 STEP    1     INCREMENT     1     STEP TIME    0.00    


                        A N A L Y S I S    D A T A C H E C K




                        S T E P       1     S T A T I C   A N A L Y S I S


                                                                                          

     AUTOMATIC TIME CONTROL WITH -
          A SUGGESTED INITIAL TIME INCREMENT OF                 1.00    
          AND A TOTAL TIME PERIOD OF                            1.00    
          THE MINIMUM TIME INCREMENT ALLOWED IS                1.000E-05
          THE MAXIMUM TIME INCREMENT ALLOWED IS                 1.00    

     LINEAR EQUATION SOLVER TYPE         DIRECT SPARSE

     COLLECTING MODEL CONSTRAINT INFORMATION FOR OVERCONSTRAINT CHECKS

     COLLECTING STEP CONSTRAINT INFORMATION FOR OVERCONSTRAINT CHECKS



     JOB TIME SUMMARY
       USER TIME (SEC)      =     1.39E+02
       SYSTEM TIME (SEC)    =      11.    
       TOTAL CPU TIME (SEC) =     1.50E+02
       WALLCLOCK TIME (SEC) =           39
       MEMORY PEAK (GB)     =            0
