 Abaqus/Standard 2025                  DATE 25-Feb-2026 TIME 12:05:18
 SUMMARY OF JOB INFORMATION:
 STEP  INC ATT SEVERE EQUIL TOTAL  TOTAL      STEP       INC OF       DOF    IF
               DISCON ITERS ITERS  TIME/    TIME/LPF    TIME/LPF    MONITOR RIKS
               ITERS               FREQ
   1     1   1U    0     2     2  0.00       0.00       1.000     
   1     1   2U    0     3     3  0.00       0.00       0.2500    
   1     1   3     0    10    10  0.0625     0.0625     0.06250   
   1     2   1     0     5     5  0.125      0.125      0.06250   
   1     3   1     0     5     5  0.188      0.188      0.06250   
   1     4   1     0     5     5  0.250      0.250      0.06250   
   1     5   1     0     5     5  0.312      0.312      0.06250   
   1     6   1     0     5     5  0.375      0.375      0.06250   
   1     7   1     0     5     5  0.438      0.438      0.06250   
   1     8   1     0     7     7  0.500      0.500      0.06250   
   1     9   1     0     9     9  0.562      0.562      0.06250   
   1    10   1     0     9     9  0.625      0.625      0.06250   
   1    11   1     0    11    11  0.688      0.688      0.06250   
   1    12   1U    0    10    10  0.688      0.688      0.04688   
   1    12   2     0     8     8  0.711      0.711      0.02344   
   1    13   1     0    10    10  0.734      0.734      0.02344   
   1    14   1     0    10    10  0.758      0.758      0.02344   
   1    15   1     0    10    10  0.781      0.781      0.02344   
   1    16   1U    0     8     8  0.781      0.781      0.02344   
   1    16   2     0     4     4  0.787      0.787      0.005859  
   1    17   1     0     4     4  0.793      0.793      0.005859  
   1    18   1     0     5     5  0.802      0.802      0.008789  
   1    19   1     0     6     6  0.811      0.811      0.008789  
   1    20   1     0     6     6  0.819      0.819      0.008789  
   1    21   1     0     6     6  0.828      0.828      0.008789  
   1    22   1     0     6     6  0.837      0.837      0.008789  
   1    23   1     0     6     6  0.846      0.846      0.008789  
   1    24   1     0     6     6  0.854      0.854      0.008789  
   1    25   1     0     6     6  0.863      0.863      0.008789  
   1    26   1     0     6     6  0.872      0.872      0.008789  
   1    27   1     0     6     6  0.881      0.881      0.008789  
   1    28   1     0     6     6  0.890      0.890      0.008789  
   1    29   1     0     6     6  0.898      0.898      0.008789  
   1    30   1     0     6     6  0.907      0.907      0.008789  
   1    31   1     0     6     6  0.916      0.916      0.008789  
   1    32   1     0     6     6  0.925      0.925      0.008789  
   1    33   1     0     6     6  0.934      0.934      0.008789  
   1    34   1     0     6     6  0.942      0.942      0.008789  
   1    35   1     0     6     6  0.951      0.951      0.008789  
   1    36   1     0     6     6  0.960      0.960      0.008789  
   1    37   1     0     6     6  0.969      0.969      0.008789  
   1    38   1     0     6     6  0.978      0.978      0.008789  
   1    39   1     0     6     6  0.986      0.986      0.008789  
   1    40   1     0     6     6  0.995      0.995      0.008789  
   1    41   1     0     4     4  1.00       1.00       0.004883  
                          
 THE ANALYSIS HAS COMPLETED SUCCESSFULLY
