 Abaqus/Standard 2025                  DATE 24-Feb-2026 TIME 17:37:04
 SUMMARY OF JOB INFORMATION:
 STEP  INC ATT SEVERE EQUIL TOTAL  TOTAL      STEP       INC OF       DOF    IF
               DISCON ITERS ITERS  TIME/    TIME/LPF    TIME/LPF    MONITOR RIKS
               ITERS               FREQ
   1     1   1U    0     2     2  0.00       0.00       1.000     
   1     1   2U    0     4     4  0.00       0.00       0.2500    
   1     1   3     0     8     8  0.0625     0.0625     0.06250   
   1     2   1     0     5     5  0.125      0.125      0.06250   
   1     3   1     0     5     5  0.188      0.188      0.06250   
   1     4   1     0     4     4  0.250      0.250      0.06250   
   1     5   1     0     4     4  0.312      0.312      0.06250   
   1     6   1     0     5     5  0.406      0.406      0.09375   
   1     7   1     0     5     5  0.500      0.500      0.09375   
   1     8   1     0     5     5  0.594      0.594      0.09375   
   1     9   1     0     5     5  0.688      0.688      0.09375   
   1    10   1     0     6     6  0.781      0.781      0.09375   
   1    11   1     0     8     8  0.875      0.875      0.09375   
   1    12   1     0     8     8  0.969      0.969      0.09375   
   1    13   1     0     5     5  1.00       1.00       0.03125   
                          
 THE ANALYSIS HAS COMPLETED SUCCESSFULLY
