1

   Abaqus 2025                                  Date 25-Feb-2026   Time 12:04:40
   For use by UNIVERSITAET STUTTGART under license from Dassault Systemes or its subsidiary.

                                                                                 
                                                                                 
 STEP    1     INCREMENT     1     STEP TIME    0.00    


                        S T E P       1     S T A T I C   A N A L Y S I S


                                                                                          

     AUTOMATIC TIME CONTROL WITH -
          A SUGGESTED INITIAL TIME INCREMENT OF                 1.00    
          AND A TOTAL TIME PERIOD OF                            1.00    
          THE MINIMUM TIME INCREMENT ALLOWED IS                1.000E-05
          THE MAXIMUM TIME INCREMENT ALLOWED IS                 1.00    

     LINEAR EQUATION SOLVER TYPE         DIRECT SPARSE

 CONVERGENCE TOLERANCE PARAMETERS FOR FORCE    
     CRITERION FOR RESIDUAL FORCE     FOR A NONLINEAR PROBLEM          5.000E-03
     CRITERION FOR DISP.    CORRECTION IN A NONLINEAR PROBLEM          1.000E-02
     INITIAL VALUE OF TIME AVERAGE FORCE                               1.000E-02
     AVERAGE FORCE     IS TIME AVERAGE FORCE    
     ALTERNATE CRIT. FOR RESIDUAL FORCE     FOR A NONLINEAR PROBLEM    2.000E-02
     CRITERION FOR ZERO FORCE     RELATIVE TO TIME AVRG. FORCE         1.000E-05
     CRITERION FOR RESIDUAL FORCE     WHEN THERE IS ZERO FLUX          1.000E-05
     CRITERION FOR DISP.    CORRECTION WHEN THERE IS ZERO FLUX         1.000E-03
     CRITERION FOR RESIDUAL FORCE     FOR A LINEAR INCREMENT           1.000E-08
     FIELD CONVERSION RATIO                                             1.00    
     CRITERION FOR ZERO FORCE     REL. TO TIME AVRG. MAX. FORCE        1.000E-05
     CRITERION FOR ZERO DISP.    RELATIVE TO CHARACTERISTIC LENGTH     1.000E-08

     VOLUMETRIC STRAIN COMPATIBILITY TOLERANCE FOR HYBRID SOLIDS       1.000E-05
     AXIAL STRAIN COMPATIBILITY TOLERANCE FOR HYBRID BEAMS             1.000E-05
     TRANS. SHEAR STRAIN COMPATIBILITY TOLERANCE FOR HYBRID BEAMS      1.000E-05
     SOFT CONTACT CONSTRAINT COMPATIBILITY TOLERANCE FOR P>P0          5.000E-03
     SOFT CONTACT CONSTRAINT COMPATIBILITY TOLERANCE FOR P=0.0         0.100    
     CONTACT FORCE ERROR TOLERANCE FOR CONVERT SDI=YES                 1.00    
     DISPLACEMENT COMPATIBILITY TOLERANCE FOR DCOUP ELEMENTS           1.000E-05
     ROTATION COMPATIBILITY TOLERANCE FOR DCOUP ELEMENTS               1.000E-05

 EQUILIBRIUM WILL BE CHECKED FOR SEVERE DISCONTINUITY ITERATIONS

 TIME INCREMENTATION CONTROL PARAMETERS:
     FIRST EQUILIBRIUM ITERATION FOR CONSECUTIVE DIVERGENCE CHECK              4
     EQUILIBRIUM ITERATION AT WHICH LOG. CONVERGENCE RATE CHECK BEGINS         8
     EQUILIBRIUM ITERATION AFTER WHICH ALTERNATE RESIDUAL IS USED              9
     MAXIMUM EQUILIBRIUM ITERATIONS ALLOWED                                   16
     EQUILIBRIUM ITERATION COUNT FOR CUT-BACK IN NEXT INCREMENT               10
     MAXIMUM EQUILIB. ITERS IN TWO INCREMENTS FOR TIME INCREMENT INCREASE      4
     MAXIMUM ITERATIONS FOR SEVERE DISCONTINUITIES                            50
     MAXIMUM ATTEMPTS ALLOWED IN AN INCREMENT                                  5
     MAXIMUM DISCON. ITERS IN TWO INCREMENTS FOR TIME INCREMENT INCREASE      50
     MAXIMUM CONTACT AUGMENTATIONS FOR *SURFACE BEHAVIOR,AUGMENTED LAGRANGE   50
     CUT-BACK FACTOR AFTER DIVERGENCE                                 0.2500    
     CUT-BACK FACTOR FOR TOO SLOW CONVERGENCE                         0.5000    
     CUT-BACK FACTOR AFTER TOO MANY EQUILIBRIUM ITERATIONS            0.7500    
     CUT-BACK FACTOR AFTER TOO MANY SEVERE DISCONTINUITY ITERATIONS   0.2500    
     CUT-BACK FACTOR AFTER PROBLEMS IN ELEMENT ASSEMBLY               0.2500    
     INCREASE FACTOR AFTER TWO INCREMENTS THAT CONVERGE QUICKLY        1.500    
     MAX. TIME INCREMENT INCREASE FACTOR ALLOWED                       1.500    
     MAX. TIME INCREMENT INCREASE FACTOR ALLOWED (DYNAMICS)            1.250    
     MAX. TIME INCREMENT INCREASE FACTOR ALLOWED (DIFFUSION)           2.000    
     MINIMUM TIME INCREMENT RATIO FOR EXTRAPOLATION TO OCCUR          0.1000    
     MAX. RATIO OF TIME INCREMENT TO STABILITY LIMIT                   1.000    
     FRACTION OF STABILITY LIMIT FOR NEW TIME INCREMENT               0.9500    
     TIME INCREMENT INCREASE FACTOR BEFORE A TIME POINT                1.000    
     GLOBAL STABILIZATION CONTROL IS NOT USED

          PRINT OF INCREMENT NUMBER, TIME, ETC., EVERY    1  INCREMENTS

     THE MAXIMUM NUMBER OF INCREMENTS IN THIS STEP IS                     100

          LARGE DISPLACEMENT THEORY WILL BE USED

     LINEAR EXTRAPOLATION WILL BE USED

     CHARACTERISTIC ELEMENT LENGTH     4.346E-04

     DETAILS REGARDING ACTUAL SOLUTION WAVEFRONT REQUESTED

     DETAILED OUTPUT OF DIAGNOSTICS TO DATABASE REQUESTED

     PRINT OF INCREMENT NUMBER, TIME, ETC., TO THE MESSAGE FILE EVERY     1  INCREMENTS

     COLLECTING MODEL CONSTRAINT INFORMATION FOR OVERCONSTRAINT CHECKS

     COLLECTING STEP CONSTRAINT INFORMATION FOR OVERCONSTRAINT CHECKS


  INCREMENT     1 STARTS. ATTEMPT NUMBER  1, TIME INCREMENT   1.00    
 
	SYMMETRIC PURE THREAD-BASED DIRECT SPARSE SOLVER RUNNING ON
 	1 HOST x 1 MPI RANK PER HOST x 1 THREAD PER RANK
        NUMBER OF EQUATIONS:  494706
        NUMBER OF RHS:        1
        NUMBER OF FLOPS:      1.131e+11
        SOLVER ELAPSED TIME:  5.0s

               CONVERGENCE CHECKS FOR EQUILIBRIUM ITERATION     1


 AVERAGE FORCE                       593.       TIME AVG. FORCE        593.    
 LARGEST SCALED RESIDUAL FORCE      3.303E+04   AT NODE       3890   DOF  1
   INSTANCE: FINAL_PART-1                                                                    
  CORRESPONDING RESIDUAL FORCE      3.303E+04
 LARGEST INCREMENT OF DISP.        -0.108       AT NODE      10604   DOF  3
   INSTANCE: FINAL_PART-1                                                                    
 LARGEST CORRECTION TO DISP.       -0.108       AT NODE      10604   DOF  3
   INSTANCE: FINAL_PART-1                                                                    
          FORCE     EQUILIBRIUM NOT ACHIEVED WITHIN TOLERANCE.
 
	SYMMETRIC PURE THREAD-BASED DIRECT SPARSE SOLVER RUNNING ON
 	1 HOST x 1 MPI RANK PER HOST x 1 THREAD PER RANK
        NUMBER OF EQUATIONS:  494706
        NUMBER OF RHS:        1
        NUMBER OF FLOPS:      1.131e+11
        SOLVER ELAPSED TIME:  6.9s
 

 ***WARNING: THE SYSTEM MATRIX HAS 191166 NEGATIVE EIGENVALUES.

     NEGATIVE EIGENVALUES MEAN THAT THE SYSTEM MATRIX IS NOT 
     POSITIVE DEFINITE:
     FOR EXAMPLE, A BIFURCATION (BUCKLING) LOAD MAY HAVE BEEN EXCEEDED.
   ELEMENT FINAL_PART-1.4 IS DISTORTING EXCESSIVELY.
   ELEMENT FINAL_PART-1.5 IS DISTORTING EXCESSIVELY.
   ELEMENT FINAL_PART-1.7 IS DISTORTING EXCESSIVELY.
   ELEMENT FINAL_PART-1.9 IS DISTORTING EXCESSIVELY.
   ELEMENT FINAL_PART-1.13 IS DISTORTING EXCESSIVELY.
   ELEMENT FINAL_PART-1.15 IS DISTORTING EXCESSIVELY.
   ELEMENT FINAL_PART-1.20 IS DISTORTING EXCESSIVELY.
   ELEMENT FINAL_PART-1.21 IS DISTORTING EXCESSIVELY.
   ELEMENT FINAL_PART-1.24 IS DISTORTING EXCESSIVELY.
   ELEMENT FINAL_PART-1.25 IS DISTORTING EXCESSIVELY.
   ELEMENT FINAL_PART-1.26 IS DISTORTING EXCESSIVELY.
   ELEMENT FINAL_PART-1.28 IS DISTORTING EXCESSIVELY.
   ELEMENT FINAL_PART-1.31 IS DISTORTING EXCESSIVELY.
   ELEMENT FINAL_PART-1.36 IS DISTORTING EXCESSIVELY.
   ELEMENT FINAL_PART-1.40 IS DISTORTING EXCESSIVELY.
   ELEMENT FINAL_PART-1.41 IS DISTORTING EXCESSIVELY.
   ELEMENT FINAL_PART-1.43 IS DISTORTING EXCESSIVELY.
   ELEMENT FINAL_PART-1.45 IS DISTORTING EXCESSIVELY.
   ELEMENT FINAL_PART-1.47 IS DISTORTING EXCESSIVELY.
   ELEMENT FINAL_PART-1.48 IS DISTORTING EXCESSIVELY.
   ELEMENT FINAL_PART-1.49 IS DISTORTING EXCESSIVELY.
   ELEMENT FINAL_PART-1.50 IS DISTORTING EXCESSIVELY.
   ELEMENT FINAL_PART-1.52 IS DISTORTING EXCESSIVELY.
   ELEMENT FINAL_PART-1.55 IS DISTORTING EXCESSIVELY.
   ELEMENT FINAL_PART-1.56 IS DISTORTING EXCESSIVELY.
   ELEMENT FINAL_PART-1.57 IS DISTORTING EXCESSIVELY.
   ELEMENT FINAL_PART-1.58 IS DISTORTING EXCESSIVELY.
   ELEMENT FINAL_PART-1.61 IS DISTORTING EXCESSIVELY.
   ELEMENT FINAL_PART-1.64 IS DISTORTING EXCESSIVELY.
   ELEMENT FINAL_PART-1.65 IS DISTORTING EXCESSIVELY.
   ELEMENT FINAL_PART-1.69 IS DISTORTING EXCESSIVELY.
   ELEMENT FINAL_PART-1.73 IS DISTORTING EXCESSIVELY.
   ELEMENT FINAL_PART-1.74 IS DISTORTING EXCESSIVELY.
   ELEMENT FINAL_PART-1.77 IS DISTORTING EXCESSIVELY.
   ELEMENT FINAL_PART-1.78 IS DISTORTING EXCESSIVELY.
   ELEMENT FINAL_PART-1.79 IS DISTORTING EXCESSIVELY.
   ELEMENT FINAL_PART-1.81 IS DISTORTING EXCESSIVELY.
   ELEMENT FINAL_PART-1.82 IS DISTORTING EXCESSIVELY.
   ELEMENT FINAL_PART-1.83 IS DISTORTING EXCESSIVELY.
   ELEMENT FINAL_PART-1.86 IS DISTORTING EXCESSIVELY.
   ELEMENT FINAL_PART-1.88 IS DISTORTING EXCESSIVELY.
   ELEMENT FINAL_PART-1.90 IS DISTORTING EXCESSIVELY.
   ELEMENT FINAL_PART-1.91 IS DISTORTING EXCESSIVELY.
   ELEMENT FINAL_PART-1.92 IS DISTORTING EXCESSIVELY.
   ELEMENT FINAL_PART-1.93 IS DISTORTING EXCESSIVELY.
   ELEMENT FINAL_PART-1.94 IS DISTORTING EXCESSIVELY.
   ELEMENT FINAL_PART-1.97 IS DISTORTING EXCESSIVELY.
   ELEMENT FINAL_PART-1.99 IS DISTORTING EXCESSIVELY.
   ELEMENT FINAL_PART-1.102 IS DISTORTING EXCESSIVELY.
   ELEMENT FINAL_PART-1.103 IS DISTORTING EXCESSIVELY.
   ELEMENT FINAL_PART-1.104 IS DISTORTING EXCESSIVELY.
   ELEMENT FINAL_PART-1.105 IS DISTORTING EXCESSIVELY.
   ELEMENT FINAL_PART-1.108 IS DISTORTING EXCESSIVELY.
   ELEMENT FINAL_PART-1.109 IS DISTORTING EXCESSIVELY.
   ELEMENT FINAL_PART-1.110 IS DISTORTING EXCESSIVELY.
   ELEMENT FINAL_PART-1.111 IS DISTORTING EXCESSIVELY.
   ELEMENT FINAL_PART-1.112 IS DISTORTING EXCESSIVELY.
   ELEMENT FINAL_PART-1.116 IS DISTORTING EXCESSIVELY.
   ELEMENT FINAL_PART-1.117 IS DISTORTING EXCESSIVELY.
   ELEMENT FINAL_PART-1.120 IS DISTORTING EXCESSIVELY.
   ELEMENT FINAL_PART-1.121 IS DISTORTING EXCESSIVELY.
   ELEMENT FINAL_PART-1.122 IS DISTORTING EXCESSIVELY.
   ELEMENT FINAL_PART-1.123 IS DISTORTING EXCESSIVELY.
   ELEMENT FINAL_PART-1.128 IS DISTORTING EXCESSIVELY.
   ELEMENT FINAL_PART-1.136 IS DISTORTING EXCESSIVELY.
   ELEMENT FINAL_PART-1.143 IS DISTORTING EXCESSIVELY.
   ELEMENT FINAL_PART-1.144 IS DISTORTING EXCESSIVELY.
   ELEMENT FINAL_PART-1.147 IS DISTORTING EXCESSIVELY.
   ELEMENT FINAL_PART-1.150 IS DISTORTING EXCESSIVELY.
   ELEMENT FINAL_PART-1.152 IS DISTORTING EXCESSIVELY.
   ELEMENT FINAL_PART-1.154 IS DISTORTING EXCESSIVELY.
   ELEMENT FINAL_PART-1.155 IS DISTORTING EXCESSIVELY.
   ELEMENT FINAL_PART-1.156 IS DISTORTING EXCESSIVELY.
   ELEMENT FINAL_PART-1.158 IS DISTORTING EXCESSIVELY.
   ELEMENT FINAL_PART-1.161 IS DISTORTING EXCESSIVELY.
   ELEMENT FINAL_PART-1.164 IS DISTORTING EXCESSIVELY.
   ELEMENT FINAL_PART-1.165 IS DISTORTING EXCESSIVELY.
   ELEMENT FINAL_PART-1.168 IS DISTORTING EXCESSIVELY.
   ELEMENT FINAL_PART-1.170 IS DISTORTING EXCESSIVELY.
   ELEMENT FINAL_PART-1.172 IS DISTORTING EXCESSIVELY.
   ELEMENT FINAL_PART-1.178 IS DISTORTING EXCESSIVELY.
   ELEMENT FINAL_PART-1.180 IS DISTORTING EXCESSIVELY.
   ELEMENT FINAL_PART-1.183 IS DISTORTING EXCESSIVELY.
   ELEMENT FINAL_PART-1.184 IS DISTORTING EXCESSIVELY.
   ELEMENT FINAL_PART-1.185 IS DISTORTING EXCESSIVELY.
   ELEMENT FINAL_PART-1.186 IS DISTORTING EXCESSIVELY.
   ELEMENT FINAL_PART-1.187 IS DISTORTING EXCESSIVELY.
   ELEMENT FINAL_PART-1.188 IS DISTORTING EXCESSIVELY.
   ELEMENT FINAL_PART-1.189 IS DISTORTING EXCESSIVELY.
   ELEMENT FINAL_PART-1.193 IS DISTORTING EXCESSIVELY.
   ELEMENT FINAL_PART-1.195 IS DISTORTING EXCESSIVELY.
   ELEMENT FINAL_PART-1.197 IS DISTORTING EXCESSIVELY.
   ELEMENT FINAL_PART-1.199 IS DISTORTING EXCESSIVELY.
   ELEMENT FINAL_PART-1.201 IS DISTORTING EXCESSIVELY.
   ELEMENT FINAL_PART-1.203 IS DISTORTING EXCESSIVELY.
   ELEMENT FINAL_PART-1.207 IS DISTORTING EXCESSIVELY.
   ELEMENT FINAL_PART-1.209 IS DISTORTING EXCESSIVELY.
   ELEMENT FINAL_PART-1.211 IS DISTORTING EXCESSIVELY.
   ELEMENT FINAL_PART-1.213 IS DISTORTING EXCESSIVELY.
   ELEMENT FINAL_PART-1.214 IS DISTORTING EXCESSIVELY.
   ELEMENT FINAL_PART-1.215 IS DISTORTING EXCESSIVELY.
   ELEMENT FINAL_PART-1.216 IS DISTORTING EXCESSIVELY.
   ELEMENT FINAL_PART-1.218 IS DISTORTING EXCESSIVELY.
   ELEMENT FINAL_PART-1.222 IS DISTORTING EXCESSIVELY.
   ELEMENT FINAL_PART-1.223 IS DISTORTING EXCESSIVELY.
   ELEMENT FINAL_PART-1.224 IS DISTORTING EXCESSIVELY.
   ELEMENT FINAL_PART-1.225 IS DISTORTING EXCESSIVELY.
   ELEMENT FINAL_PART-1.228 IS DISTORTING EXCESSIVELY.
   ELEMENT FINAL_PART-1.232 IS DISTORTING EXCESSIVELY.
   ELEMENT FINAL_PART-1.233 IS DISTORTING EXCESSIVELY.
   ELEMENT FINAL_PART-1.235 IS DISTORTING EXCESSIVELY.
   ELEMENT FINAL_PART-1.240 IS DISTORTING EXCESSIVELY.
   ELEMENT FINAL_PART-1.241 IS DISTORTING EXCESSIVELY.
   ELEMENT FINAL_PART-1.242 IS DISTORTING EXCESSIVELY.
   ELEMENT FINAL_PART-1.243 IS DISTORTING EXCESSIVELY.
   ELEMENT FINAL_PART-1.245 IS DISTORTING EXCESSIVELY.
   ELEMENT FINAL_PART-1.247 IS DISTORTING EXCESSIVELY.
   ELEMENT FINAL_PART-1.251 IS DISTORTING EXCESSIVELY.
   ELEMENT FINAL_PART-1.254 IS DISTORTING EXCESSIVELY.
   ELEMENT FINAL_PART-1.255 IS DISTORTING EXCESSIVELY.
   ELEMENT FINAL_PART-1.261 IS DISTORTING EXCESSIVELY.
   ELEMENT FINAL_PART-1.263 IS DISTORTING EXCESSIVELY.
   ELEMENT FINAL_PART-1.266 IS DISTORTING EXCESSIVELY.
   ELEMENT FINAL_PART-1.270 IS DISTORTING EXCESSIVELY.
   ELEMENT FINAL_PART-1.272 IS DISTORTING EXCESSIVELY.
   ELEMENT FINAL_PART-1.273 IS DISTORTING EXCESSIVELY.
   ELEMENT FINAL_PART-1.278 IS DISTORTING EXCESSIVELY.
   ELEMENT FINAL_PART-1.279 IS DISTORTING EXCESSIVELY.
   ELEMENT FINAL_PART-1.281 IS DISTORTING EXCESSIVELY.
   ELEMENT FINAL_PART-1.282 IS DISTORTING EXCESSIVELY.
   ELEMENT FINAL_PART-1.291 IS DISTORTING EXCESSIVELY.
   ELEMENT FINAL_PART-1.292 IS DISTORTING EXCESSIVELY.
   ELEMENT FINAL_PART-1.296 IS DISTORTING EXCESSIVELY.
   ELEMENT FINAL_PART-1.299 IS DISTORTING EXCESSIVELY.
   ELEMENT FINAL_PART-1.303 IS DISTORTING EXCESSIVELY.
   ELEMENT FINAL_PART-1.304 IS DISTORTING EXCESSIVELY.
   ELEMENT FINAL_PART-1.305 IS DISTORTING EXCESSIVELY.
   ELEMENT FINAL_PART-1.306 IS DISTORTING EXCESSIVELY.
   ELEMENT FINAL_PART-1.310 IS DISTORTING EXCESSIVELY.
   ELEMENT FINAL_PART-1.312 IS DISTORTING EXCESSIVELY.
   ELEMENT FINAL_PART-1.313 IS DISTORTING EXCESSIVELY.
   ELEMENT FINAL_PART-1.314 IS DISTORTING EXCESSIVELY.
   ELEMENT FINAL_PART-1.315 IS DISTORTING EXCESSIVELY.
   ELEMENT FINAL_PART-1.320 IS DISTORTING EXCESSIVELY.
   ELEMENT FINAL_PART-1.323 IS DISTORTING EXCESSIVELY.
   ELEMENT FINAL_PART-1.325 IS DISTORTING EXCESSIVELY.
   ELEMENT FINAL_PART-1.332 IS DISTORTING EXCESSIVELY.
   ELEMENT FINAL_PART-1.333 IS DISTORTING EXCESSIVELY.
   ELEMENT FINAL_PART-1.334 IS DISTORTING EXCESSIVELY.
   ELEMENT FINAL_PART-1.337 IS DISTORTING EXCESSIVELY.
   ELEMENT FINAL_PART-1.338 IS DISTORTING EXCESSIVELY.
   ELEMENT FINAL_PART-1.340 IS DISTORTING EXCESSIVELY.
   ELEMENT FINAL_PART-1.341 IS DISTORTING EXCESSIVELY.
   ELEMENT FINAL_PART-1.342 IS DISTORTING EXCESSIVELY.
   ELEMENT FINAL_PART-1.343 IS DISTORTING EXCESSIVELY.
   ELEMENT FINAL_PART-1.348 IS DISTORTING EXCESSIVELY.
   ELEMENT FINAL_PART-1.351 IS DISTORTING EXCESSIVELY.
   ELEMENT FINAL_PART-1.352 IS DISTORTING EXCESSIVELY.
   ELEMENT FINAL_PART-1.354 IS DISTORTING EXCESSIVELY.
   ELEMENT FINAL_PART-1.355 IS DISTORTING EXCESSIVELY.
   ELEMENT FINAL_PART-1.356 IS DISTORTING EXCESSIVELY.
   ELEMENT FINAL_PART-1.357 IS DISTORTING EXCESSIVELY.
   ELEMENT FINAL_PART-1.358 IS DISTORTING EXCESSIVELY.
   ELEMENT FINAL_PART-1.363 IS DISTORTING EXCESSIVELY.
   ELEMENT FINAL_PART-1.366 IS DISTORTING EXCESSIVELY.
   ELEMENT FINAL_PART-1.368 IS DISTORTING EXCESSIVELY.
   ELEMENT FINAL_PART-1.370 IS DISTORTING EXCESSIVELY.
   ELEMENT FINAL_PART-1.371 IS DISTORTING EXCESSIVELY.
   ELEMENT FINAL_PART-1.375 IS DISTORTING EXCESSIVELY.
   ELEMENT FINAL_PART-1.377 IS DISTORTING EXCESSIVELY.
   ELEMENT FINAL_PART-1.378 IS DISTORTING EXCESSIVELY.
   ELEMENT FINAL_PART-1.379 IS DISTORTING EXCESSIVELY.
   ELEMENT FINAL_PART-1.380 IS DISTORTING EXCESSIVELY.
   ELEMENT FINAL_PART-1.381 IS DISTORTING EXCESSIVELY.
   ELEMENT FINAL_PART-1.383 IS DISTORTING EXCESSIVELY.
   ELEMENT FINAL_PART-1.384 IS DISTORTING EXCESSIVELY.
   ELEMENT FINAL_PART-1.386 IS DISTORTING EXCESSIVELY.
   ELEMENT FINAL_PART-1.387 IS DISTORTING EXCESSIVELY.
   ELEMENT FINAL_PART-1.388 IS DISTORTING EXCESSIVELY.
   ELEMENT FINAL_PART-1.392 IS DISTORTING EXCESSIVELY.
   ELEMENT FINAL_PART-1.394 IS DISTORTING EXCESSIVELY.
   ELEMENT FINAL_PART-1.395 IS DISTORTING EXCESSIVELY.
   ELEMENT FINAL_PART-1.398 IS DISTORTING EXCESSIVELY.
   ELEMENT FINAL_PART-1.402 IS DISTORTING EXCESSIVELY.
   ELEMENT FINAL_PART-1.403 IS DISTORTING EXCESSIVELY.
   ELEMENT FINAL_PART-1.408 IS DISTORTING EXCESSIVELY.
   ELEMENT FINAL_PART-1.410 IS DISTORTING EXCESSIVELY.
   ELEMENT FINAL_PART-1.412 IS DISTORTING EXCESSIVELY.
   ELEMENT FINAL_PART-1.415 IS DISTORTING EXCESSIVELY.
   ELEMENT FINAL_PART-1.416 IS DISTORTING EXCESSIVELY.
   ELEMENT FINAL_PART-1.418 IS DISTORTING EXCESSIVELY.
   ELEMENT FINAL_PART-1.419 IS DISTORTING EXCESSIVELY.
   ELEMENT FINAL_PART-1.424 IS DISTORTING EXCESSIVELY.
   ELEMENT FINAL_PART-1.425 IS DISTORTING EXCESSIVELY.
   ELEMENT FINAL_PART-1.426 IS DISTORTING EXCESSIVELY.
   ELEMENT FINAL_PART-1.427 IS DISTORTING EXCESSIVELY.
   ELEMENT FINAL_PART-1.429 IS DISTORTING EXCESSIVELY.
   ELEMENT FINAL_PART-1.432 IS DISTORTING EXCESSIVELY.
   ELEMENT FINAL_PART-1.435 IS DISTORTING EXCESSIVELY.
   ELEMENT FINAL_PART-1.437 IS DISTORTING EXCESSIVELY.
   ELEMENT FINAL_PART-1.438 IS DISTORTING EXCESSIVELY.
   ELEMENT FINAL_PART-1.441 IS DISTORTING EXCESSIVELY.
   ELEMENT FINAL_PART-1.443 IS DISTORTING EXCESSIVELY.
   ELEMENT FINAL_PART-1.444 IS DISTORTING EXCESSIVELY.
   ELEMENT FINAL_PART-1.448 IS DISTORTING EXCESSIVELY.
   ELEMENT FINAL_PART-1.449 IS DISTORTING EXCESSIVELY.
   ELEMENT FINAL_PART-1.452 IS DISTORTING EXCESSIVELY.
   ELEMENT FINAL_PART-1.453 IS DISTORTING EXCESSIVELY.
   ELEMENT FINAL_PART-1.457 IS DISTORTING EXCESSIVELY.
   ELEMENT FINAL_PART-1.458 IS DISTORTING EXCESSIVELY.
   ELEMENT FINAL_PART-1.460 IS DISTORTING EXCESSIVELY.
   ELEMENT FINAL_PART-1.461 IS DISTORTING EXCESSIVELY.
   ELEMENT FINAL_PART-1.462 IS DISTORTING EXCESSIVELY.
   ELEMENT FINAL_PART-1.464 IS DISTORTING EXCESSIVELY.
   ELEMENT FINAL_PART-1.466 IS DISTORTING EXCESSIVELY.
   ELEMENT FINAL_PART-1.467 IS DISTORTING EXCESSIVELY.
   ELEMENT FINAL_PART-1.470 IS DISTORTING EXCESSIVELY.
   ELEMENT FINAL_PART-1.471 IS DISTORTING EXCESSIVELY.
   ELEMENT FINAL_PART-1.472 IS DISTORTING EXCESSIVELY.
   ELEMENT FINAL_PART-1.473 IS DISTORTING EXCESSIVELY.
   ELEMENT FINAL_PART-1.474 IS DISTORTING EXCESSIVELY.
   ELEMENT FINAL_PART-1.476 IS DISTORTING EXCESSIVELY.
   ELEMENT FINAL_PART-1.477 IS DISTORTING EXCESSIVELY.
   ELEMENT FINAL_PART-1.478 IS DISTORTING EXCESSIVELY.
   ELEMENT FINAL_PART-1.480 IS DISTORTING EXCESSIVELY.
   ELEMENT FINAL_PART-1.481 IS DISTORTING EXCESSIVELY.
   ELEMENT FINAL_PART-1.482 IS DISTORTING EXCESSIVELY.
   ELEMENT FINAL_PART-1.483 IS DISTORTING EXCESSIVELY.
   ELEMENT FINAL_PART-1.485 IS DISTORTING EXCESSIVELY.
   ELEMENT FINAL_PART-1.486 IS DISTORTING EXCESSIVELY.
   ELEMENT FINAL_PART-1.489 IS DISTORTING EXCESSIVELY.
   ELEMENT FINAL_PART-1.491 IS DISTORTING EXCESSIVELY.
   ELEMENT FINAL_PART-1.495 IS DISTORTING EXCESSIVELY.
   ELEMENT FINAL_PART-1.497 IS DISTORTING EXCESSIVELY.
   ELEMENT FINAL_PART-1.501 IS DISTORTING EXCESSIVELY.
   ELEMENT FINAL_PART-1.503 IS DISTORTING EXCESSIVELY.
   ELEMENT FINAL_PART-1.505 IS DISTORTING EXCESSIVELY.
   ELEMENT FINAL_PART-1.508 IS DISTORTING EXCESSIVELY.
   ELEMENT FINAL_PART-1.509 IS DISTORTING EXCESSIVELY.
   ELEMENT FINAL_PART-1.511 IS DISTORTING EXCESSIVELY.
   ELEMENT FINAL_PART-1.518 IS DISTORTING EXCESSIVELY.
   ELEMENT FINAL_PART-1.520 IS DISTORTING EXCESSIVELY.
   ELEMENT FINAL_PART-1.521 IS DISTORTING EXCESSIVELY.
   ELEMENT FINAL_PART-1.523 IS DISTORTING EXCESSIVELY.
   ELEMENT FINAL_PART-1.527 IS DISTORTING EXCESSIVELY.
   ELEMENT FINAL_PART-1.530 IS DISTORTING EXCESSIVELY.
   ELEMENT FINAL_PART-1.531 IS DISTORTING EXCESSIVELY.
   ELEMENT FINAL_PART-1.532 IS DISTORTING EXCESSIVELY.
   ELEMENT FINAL_PART-1.533 IS DISTORTING EXCESSIVELY.
   ELEMENT FINAL_PART-1.536 IS DISTORTING EXCESSIVELY.
   ELEMENT FINAL_PART-1.537 IS DISTORTING EXCESSIVELY.
   ELEMENT FINAL_PART-1.544 IS DISTORTING EXCESSIVELY.
   ELEMENT FINAL_PART-1.547 IS DISTORTING EXCESSIVELY.
   ELEMENT FINAL_PART-1.558 IS DISTORTING EXCESSIVELY.
   ELEMENT FINAL_PART-1.560 IS DISTORTING EXCESSIVELY.
   ELEMENT FINAL_PART-1.561 IS DISTORTING EXCESSIVELY.
   ELEMENT FINAL_PART-1.565 IS DISTORTING EXCESSIVELY.
   ELEMENT FINAL_PART-1.566 IS DISTORTING EXCESSIVELY.
   ELEMENT FINAL_PART-1.567 IS DISTORTING EXCESSIVELY.
   ELEMENT FINAL_PART-1.569 IS DISTORTING EXCESSIVELY.
   ELEMENT FINAL_PART-1.570 IS DISTORTING EXCESSIVELY.
   ELEMENT FINAL_PART-1.572 IS DISTORTING EXCESSIVELY.
   ELEMENT FINAL_PART-1.574 IS DISTORTING EXCESSIVELY.
   ELEMENT FINAL_PART-1.575 IS DISTORTING EXCESSIVELY.
   ELEMENT FINAL_PART-1.576 IS DISTORTING EXCESSIVELY.
   ELEMENT FINAL_PART-1.577 IS DISTORTING EXCESSIVELY.
   ELEMENT FINAL_PART-1.579 IS DISTORTING EXCESSIVELY.
   ELEMENT FINAL_PART-1.581 IS DISTORTING EXCESSIVELY.
   ELEMENT FINAL_PART-1.583 IS DISTORTING EXCESSIVELY.
   ELEMENT FINAL_PART-1.584 IS DISTORTING EXCESSIVELY.
   ELEMENT FINAL_PART-1.585 IS DISTORTING EXCESSIVELY.
   ELEMENT FINAL_PART-1.586 IS DISTORTING EXCESSIVELY.
   ELEMENT FINAL_PART-1.587 IS DISTORTING EXCESSIVELY.
   ELEMENT FINAL_PART-1.590 IS DISTORTING EXCESSIVELY.
   ELEMENT FINAL_PART-1.593 IS DISTORTING EXCESSIVELY.
   ELEMENT FINAL_PART-1.596 IS DISTORTING EXCESSIVELY.
   ELEMENT FINAL_PART-1.598 IS DISTORTING EXCESSIVELY.
   ELEMENT FINAL_PART-1.600 IS DISTORTING EXCESSIVELY.
   ELEMENT FINAL_PART-1.601 IS DISTORTING EXCESSIVELY.
   ELEMENT FINAL_PART-1.603 IS DISTORTING EXCESSIVELY.
   ELEMENT FINAL_PART-1.604 IS DISTORTING EXCESSIVELY.
   ELEMENT FINAL_PART-1.605 IS DISTORTING EXCESSIVELY.
   ELEMENT FINAL_PART-1.608 IS DISTORTING EXCESSIVELY.
   ELEMENT FINAL_PART-1.609 IS DISTORTING EXCESSIVELY.
   ELEMENT FINAL_PART-1.612 IS DISTORTING EXCESSIVELY.
   ELEMENT FINAL_PART-1.616 IS DISTORTING EXCESSIVELY.
   ELEMENT FINAL_PART-1.617 IS DISTORTING EXCESSIVELY.
   ELEMENT FINAL_PART-1.618 IS DISTORTING EXCESSIVELY.
   ELEMENT FINAL_PART-1.619 IS DISTORTING EXCESSIVELY.
   ELEMENT FINAL_PART-1.622 IS DISTORTING EXCESSIVELY.
   ELEMENT FINAL_PART-1.623 IS DISTORTING EXCESSIVELY.
   ELEMENT FINAL_PART-1.624 IS DISTORTING EXCESSIVELY.
   ELEMENT FINAL_PART-1.625 IS DISTORTING EXCESSIVELY.
   ELEMENT FINAL_PART-1.626 IS DISTORTING EXCESSIVELY.
   ELEMENT FINAL_PART-1.627 IS DISTORTING EXCESSIVELY.
   ELEMENT FINAL_PART-1.628 IS DISTORTING EXCESSIVELY.
   ELEMENT FINAL_PART-1.632 IS DISTORTING EXCESSIVELY.
   ELEMENT FINAL_PART-1.633 IS DISTORTING EXCESSIVELY.
   ELEMENT FINAL_PART-1.636 IS DISTORTING EXCESSIVELY.
   ELEMENT FINAL_PART-1.638 IS DISTORTING EXCESSIVELY.
   ELEMENT FINAL_PART-1.639 IS DISTORTING EXCESSIVELY.
   ELEMENT FINAL_PART-1.643 IS DISTORTING EXCESSIVELY.
   ELEMENT FINAL_PART-1.646 IS DISTORTING EXCESSIVELY.
   ELEMENT FINAL_PART-1.650 IS DISTORTING EXCESSIVELY.
   ELEMENT FINAL_PART-1.651 IS DISTORTING EXCESSIVELY.
   ELEMENT FINAL_PART-1.652 IS DISTORTING EXCESSIVELY.
   ELEMENT FINAL_PART-1.653 IS DISTORTING EXCESSIVELY.
   ELEMENT FINAL_PART-1.655 IS DISTORTING EXCESSIVELY.
   ELEMENT FINAL_PART-1.657 IS DISTORTING EXCESSIVELY.
   ELEMENT FINAL_PART-1.659 IS DISTORTING EXCESSIVELY.
   ELEMENT FINAL_PART-1.661 IS DISTORTING EXCESSIVELY.
   ELEMENT FINAL_PART-1.662 IS DISTORTING EXCESSIVELY.
   ELEMENT FINAL_PART-1.663 IS DISTORTING EXCESSIVELY.
   ELEMENT FINAL_PART-1.664 IS DISTORTING EXCESSIVELY.
   ELEMENT FINAL_PART-1.667 IS DISTORTING EXCESSIVELY.
   ELEMENT FINAL_PART-1.668 IS DISTORTING EXCESSIVELY.
   ELEMENT FINAL_PART-1.669 IS DISTORTING EXCESSIVELY.
   ELEMENT FINAL_PART-1.670 IS DISTORTING EXCESSIVELY.
   ELEMENT FINAL_PART-1.672 IS DISTORTING EXCESSIVELY.
   ELEMENT FINAL_PART-1.673 IS DISTORTING EXCESSIVELY.
   ELEMENT FINAL_PART-1.674 IS DISTORTING EXCESSIVELY.
   ELEMENT FINAL_PART-1.675 IS DISTORTING EXCESSIVELY.
   ELEMENT FINAL_PART-1.677 IS DISTORTING EXCESSIVELY.
   ELEMENT FINAL_PART-1.678 IS DISTORTING EXCESSIVELY.
   ELEMENT FINAL_PART-1.679 IS DISTORTING EXCESSIVELY.
   ELEMENT FINAL_PART-1.680 IS DISTORTING EXCESSIVELY.
   ELEMENT FINAL_PART-1.681 IS DISTORTING EXCESSIVELY.
   ELEMENT FINAL_PART-1.685 IS DISTORTING EXCESSIVELY.
   ELEMENT FINAL_PART-1.686 IS DISTORTING EXCESSIVELY.
   ELEMENT FINAL_PART-1.688 IS DISTORTING EXCESSIVELY.
   ELEMENT FINAL_PART-1.690 IS DISTORTING EXCESSIVELY.
   ELEMENT FINAL_PART-1.691 IS DISTORTING EXCESSIVELY.
   ELEMENT FINAL_PART-1.692 IS DISTORTING EXCESSIVELY.
   ELEMENT FINAL_PART-1.695 IS DISTORTING EXCESSIVELY.
   ELEMENT FINAL_PART-1.696 IS DISTORTING EXCESSIVELY.
   ELEMENT FINAL_PART-1.697 IS DISTORTING EXCESSIVELY.
   ELEMENT FINAL_PART-1.702 IS DISTORTING EXCESSIVELY.
   ELEMENT FINAL_PART-1.703 IS DISTORTING EXCESSIVELY.
   ELEMENT FINAL_PART-1.704 IS DISTORTING EXCESSIVELY.
   ELEMENT FINAL_PART-1.710 IS DISTORTING EXCESSIVELY.
   ELEMENT FINAL_PART-1.711 IS DISTORTING EXCESSIVELY.
   ELEMENT FINAL_PART-1.712 IS DISTORTING EXCESSIVELY.
   ELEMENT FINAL_PART-1.713 IS DISTORTING EXCESSIVELY.
   ELEMENT FINAL_PART-1.717 IS DISTORTING EXCESSIVELY.
   ELEMENT FINAL_PART-1.720 IS DISTORTING EXCESSIVELY.
   ELEMENT FINAL_PART-1.725 IS DISTORTING EXCESSIVELY.
   ELEMENT FINAL_PART-1.728 IS DISTORTING EXCESSIVELY.
   ELEMENT FINAL_PART-1.729 IS DISTORTING EXCESSIVELY.
   ELEMENT FINAL_PART-1.730 IS DISTORTING EXCESSIVELY.
   ELEMENT FINAL_PART-1.731 IS DISTORTING EXCESSIVELY.
   ELEMENT FINAL_PART-1.735 IS DISTORTING EXCESSIVELY.
   ELEMENT FINAL_PART-1.738 IS DISTORTING EXCESSIVELY.
   ELEMENT FINAL_PART-1.745 IS DISTORTING EXCESSIVELY.
   ELEMENT FINAL_PART-1.746 IS DISTORTING EXCESSIVELY.
   ELEMENT FINAL_PART-1.747 IS DISTORTING EXCESSIVELY.
   ELEMENT FINAL_PART-1.749 IS DISTORTING EXCESSIVELY.
   ELEMENT FINAL_PART-1.751 IS DISTORTING EXCESSIVELY.
   ELEMENT FINAL_PART-1.753 IS DISTORTING EXCESSIVELY.
   ELEMENT FINAL_PART-1.755 IS DISTORTING EXCESSIVELY.
   ELEMENT FINAL_PART-1.758 IS DISTORTING EXCESSIVELY.
   ELEMENT FINAL_PART-1.760 IS DISTORTING EXCESSIVELY.
   ELEMENT FINAL_PART-1.761 IS DISTORTING EXCESSIVELY.
   ELEMENT FINAL_PART-1.763 IS DISTORTING EXCESSIVELY.
   ELEMENT FINAL_PART-1.765 IS DISTORTING EXCESSIVELY.
   ELEMENT FINAL_PART-1.767 IS DISTORTING EXCESSIVELY.
   ELEMENT FINAL_PART-1.769 IS DISTORTING EXCESSIVELY.
   ELEMENT FINAL_PART-1.770 IS DISTORTING EXCESSIVELY.
   ELEMENT FINAL_PART-1.771 IS DISTORTING EXCESSIVELY.
   ELEMENT FINAL_PART-1.774 IS DISTORTING EXCESSIVELY.
   ELEMENT FINAL_PART-1.775 IS DISTORTING EXCESSIVELY.
   ELEMENT FINAL_PART-1.776 IS DISTORTING EXCESSIVELY.
   ELEMENT FINAL_PART-1.777 IS DISTORTING EXCESSIVELY.
   ELEMENT FINAL_PART-1.778 IS DISTORTING EXCESSIVELY.
   ELEMENT FINAL_PART-1.779 IS DISTORTING EXCESSIVELY.
   ELEMENT FINAL_PART-1.780 IS DISTORTING EXCESSIVELY.
   ELEMENT FINAL_PART-1.782 IS DISTORTING EXCESSIVELY.
   ELEMENT FINAL_PART-1.783 IS DISTORTING EXCESSIVELY.
   ELEMENT FINAL_PART-1.784 IS DISTORTING EXCESSIVELY.
   ELEMENT FINAL_PART-1.787 IS DISTORTING EXCESSIVELY.
   ELEMENT FINAL_PART-1.792 IS DISTORTING EXCESSIVELY.
   ELEMENT FINAL_PART-1.793 IS DISTORTING EXCESSIVELY.
   ELEMENT FINAL_PART-1.795 IS DISTORTING EXCESSIVELY.
   ELEMENT FINAL_PART-1.798 IS DISTORTING EXCESSIVELY.
   ELEMENT FINAL_PART-1.799 IS DISTORTING EXCESSIVELY.
   ELEMENT FINAL_PART-1.800 IS DISTORTING EXCESSIVELY.
   ELEMENT FINAL_PART-1.801 IS DISTORTING EXCESSIVELY.
   ELEMENT FINAL_PART-1.803 IS DISTORTING EXCESSIVELY.
   ELEMENT FINAL_PART-1.808 IS DISTORTING EXCESSIVELY.
   ELEMENT FINAL_PART-1.809 IS DISTORTING EXCESSIVELY.
   ELEMENT FINAL_PART-1.814 IS DISTORTING EXCESSIVELY.
   ELEMENT FINAL_PART-1.815 IS DISTORTING EXCESSIVELY.
   ELEMENT FINAL_PART-1.816 IS DISTORTING EXCESSIVELY.
   ELEMENT FINAL_PART-1.817 IS DISTORTING EXCESSIVELY.
   ELEMENT FINAL_PART-1.818 IS DISTORTING EXCESSIVELY.
   ELEMENT FINAL_PART-1.819 IS DISTORTING EXCESSIVELY.
   ELEMENT FINAL_PART-1.820 IS DISTORTING EXCESSIVELY.
   ELEMENT FINAL_PART-1.822 IS DISTORTING EXCESSIVELY.
   ELEMENT FINAL_PART-1.823 IS DISTORTING EXCESSIVELY.
   ELEMENT FINAL_PART-1.824 IS DISTORTING EXCESSIVELY.
   ELEMENT FINAL_PART-1.830 IS DISTORTING EXCESSIVELY.
   ELEMENT FINAL_PART-1.835 IS DISTORTING EXCESSIVELY.
   ELEMENT FINAL_PART-1.838 IS DISTORTING EXCESSIVELY.
   ELEMENT FINAL_PART-1.841 IS DISTORTING EXCESSIVELY.
   ELEMENT FINAL_PART-1.843 IS DISTORTING EXCESSIVELY.
   ELEMENT FINAL_PART-1.844 IS DISTORTING EXCESSIVELY.
   ELEMENT FINAL_PART-1.845 IS DISTORTING EXCESSIVELY.
   ELEMENT FINAL_PART-1.846 IS DISTORTING EXCESSIVELY.
   ELEMENT FINAL_PART-1.847 IS DISTORTING EXCESSIVELY.
   ELEMENT FINAL_PART-1.848 IS DISTORTING EXCESSIVELY.
   ELEMENT FINAL_PART-1.849 IS DISTORTING EXCESSIVELY.
   ELEMENT FINAL_PART-1.851 IS DISTORTING EXCESSIVELY.
   ELEMENT FINAL_PART-1.852 IS DISTORTING EXCESSIVELY.
   ELEMENT FINAL_PART-1.855 IS DISTORTING EXCESSIVELY.
   ELEMENT FINAL_PART-1.859 IS DISTORTING EXCESSIVELY.
   ELEMENT FINAL_PART-1.861 IS DISTORTING EXCESSIVELY.
   ELEMENT FINAL_PART-1.862 IS DISTORTING EXCESSIVELY.
   ELEMENT FINAL_PART-1.865 IS DISTORTING EXCESSIVELY.
   ELEMENT FINAL_PART-1.873 IS DISTORTING EXCESSIVELY.
   ELEMENT FINAL_PART-1.877 IS DISTORTING EXCESSIVELY.
   ELEMENT FINAL_PART-1.880 IS DISTORTING EXCESSIVELY.
   ELEMENT FINAL_PART-1.881 IS DISTORTING EXCESSIVELY.
   ELEMENT FINAL_PART-1.882 IS DISTORTING EXCESSIVELY.
   ELEMENT FINAL_PART-1.883 IS DISTORTING EXCESSIVELY.
   ELEMENT FINAL_PART-1.884 IS DISTORTING EXCESSIVELY.
   ELEMENT FINAL_PART-1.889 IS DISTORTING EXCESSIVELY.
   ELEMENT FINAL_PART-1.890 IS DISTORTING EXCESSIVELY.
   ELEMENT FINAL_PART-1.891 IS DISTORTING EXCESSIVELY.
   ELEMENT FINAL_PART-1.893 IS DISTORTING EXCESSIVELY.
   ELEMENT FINAL_PART-1.895 IS DISTORTING EXCESSIVELY.
   ELEMENT FINAL_PART-1.897 IS DISTORTING EXCESSIVELY.
   ELEMENT FINAL_PART-1.899 IS DISTORTING EXCESSIVELY.
   ELEMENT FINAL_PART-1.900 IS DISTORTING EXCESSIVELY.
   ELEMENT FINAL_PART-1.904 IS DISTORTING EXCESSIVELY.
   ELEMENT FINAL_PART-1.905 IS DISTORTING EXCESSIVELY.
   ELEMENT FINAL_PART-1.908 IS DISTORTING EXCESSIVELY.
   ELEMENT FINAL_PART-1.911 IS DISTORTING EXCESSIVELY.
   ELEMENT FINAL_PART-1.912 IS DISTORTING EXCESSIVELY.
   ELEMENT FINAL_PART-1.913 IS DISTORTING EXCESSIVELY.
   ELEMENT FINAL_PART-1.917 IS DISTORTING EXCESSIVELY.
   ELEMENT FINAL_PART-1.918 IS DISTORTING EXCESSIVELY.
   ELEMENT FINAL_PART-1.920 IS DISTORTING EXCESSIVELY.
   ELEMENT FINAL_PART-1.921 IS DISTORTING EXCESSIVELY.
   ELEMENT FINAL_PART-1.922 IS DISTORTING EXCESSIVELY.
   ELEMENT FINAL_PART-1.923 IS DISTORTING EXCESSIVELY.
   ELEMENT FINAL_PART-1.924 IS DISTORTING EXCESSIVELY.
   ELEMENT FINAL_PART-1.925 IS DISTORTING EXCESSIVELY.
   ELEMENT FINAL_PART-1.926 IS DISTORTING EXCESSIVELY.
   ELEMENT FINAL_PART-1.927 IS DISTORTING EXCESSIVELY.
   ELEMENT FINAL_PART-1.930 IS DISTORTING EXCESSIVELY.
   ELEMENT FINAL_PART-1.931 IS DISTORTING EXCESSIVELY.
   ELEMENT FINAL_PART-1.932 IS DISTORTING EXCESSIVELY.
   ELEMENT FINAL_PART-1.933 IS DISTORTING EXCESSIVELY.
   ELEMENT FINAL_PART-1.934 IS DISTORTING EXCESSIVELY.
   ELEMENT FINAL_PART-1.935 IS DISTORTING EXCESSIVELY.
   ELEMENT FINAL_PART-1.936 IS DISTORTING EXCESSIVELY.
   ELEMENT FINAL_PART-1.938 IS DISTORTING EXCESSIVELY.
   ELEMENT FINAL_PART-1.941 IS DISTORTING EXCESSIVELY.
   ELEMENT FINAL_PART-1.945 IS DISTORTING EXCESSIVELY.
   ELEMENT FINAL_PART-1.947 IS DISTORTING EXCESSIVELY.
   ELEMENT FINAL_PART-1.950 IS DISTORTING EXCESSIVELY.
   ELEMENT FINAL_PART-1.951 IS DISTORTING EXCESSIVELY.
   ELEMENT FINAL_PART-1.952 IS DISTORTING EXCESSIVELY.
   ELEMENT FINAL_PART-1.953 IS DISTORTING EXCESSIVELY.
   ELEMENT FINAL_PART-1.957 IS DISTORTING EXCESSIVELY.
   ELEMENT FINAL_PART-1.961 IS DISTORTING EXCESSIVELY.
   ELEMENT FINAL_PART-1.964 IS DISTORTING EXCESSIVELY.
   ELEMENT FINAL_PART-1.965 IS DISTORTING EXCESSIVELY.
   ELEMENT FINAL_PART-1.968 IS DISTORTING EXCESSIVELY.
   ELEMENT FINAL_PART-1.971 IS DISTORTING EXCESSIVELY.
   ELEMENT FINAL_PART-1.972 IS DISTORTING EXCESSIVELY.
   ELEMENT FINAL_PART-1.973 IS DISTORTING EXCESSIVELY.
   ELEMENT FINAL_PART-1.977 IS DISTORTING EXCESSIVELY.
   ELEMENT FINAL_PART-1.980 IS DISTORTING EXCESSIVELY.
   ELEMENT FINAL_PART-1.983 IS DISTORTING EXCESSIVELY.
   ELEMENT FINAL_PART-1.986 IS DISTORTING EXCESSIVELY.
   ELEMENT FINAL_PART-1.991 IS DISTORTING EXCESSIVELY.
   ELEMENT FINAL_PART-1.993 IS DISTORTING EXCESSIVELY.
   ELEMENT FINAL_PART-1.996 IS DISTORTING EXCESSIVELY.
   ELEMENT FINAL_PART-1.998 IS DISTORTING EXCESSIVELY.
   ELEMENT FINAL_PART-1.999 IS DISTORTING EXCESSIVELY.
   ELEMENT FINAL_PART-1.1000 IS DISTORTING EXCESSIVELY.
   ELEMENT FINAL_PART-1.1003 IS DISTORTING EXCESSIVELY.
   ELEMENT FINAL_PART-1.1004 IS DISTORTING EXCESSIVELY.
   ELEMENT FINAL_PART-1.1005 IS DISTORTING EXCESSIVELY.
   ELEMENT FINAL_PART-1.1007 IS DISTORTING EXCESSIVELY.
   ELEMENT FINAL_PART-1.1008 IS DISTORTING EXCESSIVELY.
   ELEMENT FINAL_PART-1.1012 IS DISTORTING EXCESSIVELY.
   ELEMENT FINAL_PART-1.1013 IS DISTORTING EXCESSIVELY.
   ELEMENT FINAL_PART-1.1014 IS DISTORTING EXCESSIVELY.
   ELEMENT FINAL_PART-1.1016 IS DISTORTING EXCESSIVELY.
   ELEMENT FINAL_PART-1.1017 IS DISTORTING EXCESSIVELY.
   ELEMENT FINAL_PART-1.1020 IS DISTORTING EXCESSIVELY.
   ELEMENT FINAL_PART-1.1021 IS DISTORTING EXCESSIVELY.
   ELEMENT FINAL_PART-1.1022 IS DISTORTING EXCESSIVELY.
   ELEMENT FINAL_PART-1.1023 IS DISTORTING EXCESSIVELY.
   ELEMENT FINAL_PART-1.1024 IS DISTORTING EXCESSIVELY.
   ELEMENT FINAL_PART-1.1026 IS DISTORTING EXCESSIVELY.
   ELEMENT FINAL_PART-1.1027 IS DISTORTING EXCESSIVELY.
   ELEMENT FINAL_PART-1.1028 IS DISTORTING EXCESSIVELY.
   ELEMENT FINAL_PART-1.1030 IS DISTORTING EXCESSIVELY.
   ELEMENT FINAL_PART-1.1033 IS DISTORTING EXCESSIVELY.
   ELEMENT FINAL_PART-1.1035 IS DISTORTING EXCESSIVELY.
   ELEMENT FINAL_PART-1.1036 IS DISTORTING EXCESSIVELY.
   ELEMENT FINAL_PART-1.1038 IS DISTORTING EXCESSIVELY.
   ELEMENT FINAL_PART-1.1040 IS DISTORTING EXCESSIVELY.
   ELEMENT FINAL_PART-1.1041 IS DISTORTING EXCESSIVELY.
   ELEMENT FINAL_PART-1.1042 IS DISTORTING EXCESSIVELY.
   ELEMENT FINAL_PART-1.1043 IS DISTORTING EXCESSIVELY.
   ELEMENT FINAL_PART-1.1045 IS DISTORTING EXCESSIVELY.
   ELEMENT FINAL_PART-1.1046 IS DISTORTING EXCESSIVELY.
   ELEMENT FINAL_PART-1.1047 IS DISTORTING EXCESSIVELY.
   ELEMENT FINAL_PART-1.1048 IS DISTORTING EXCESSIVELY.
   ELEMENT FINAL_PART-1.1051 IS DISTORTING EXCESSIVELY.
   ELEMENT FINAL_PART-1.1052 IS DISTORTING EXCESSIVELY.
   ELEMENT FINAL_PART-1.1054 IS DISTORTING EXCESSIVELY.
   ELEMENT FINAL_PART-1.1057 IS DISTORTING EXCESSIVELY.
   ELEMENT FINAL_PART-1.1058 IS DISTORTING EXCESSIVELY.
   ELEMENT FINAL_PART-1.1059 IS DISTORTING EXCESSIVELY.
   ELEMENT FINAL_PART-1.1063 IS DISTORTING EXCESSIVELY.
   ELEMENT FINAL_PART-1.1064 IS DISTORTING EXCESSIVELY.
   ELEMENT FINAL_PART-1.1065 IS DISTORTING EXCESSIVELY.
   ELEMENT FINAL_PART-1.1066 IS DISTORTING EXCESSIVELY.
   ELEMENT FINAL_PART-1.1069 IS DISTORTING EXCESSIVELY.
   ELEMENT FINAL_PART-1.1071 IS DISTORTING EXCESSIVELY.
   ELEMENT FINAL_PART-1.1072 IS DISTORTING EXCESSIVELY.
   ELEMENT FINAL_PART-1.1079 IS DISTORTING EXCESSIVELY.
   ELEMENT FINAL_PART-1.1080 IS DISTORTING EXCESSIVELY.
   ELEMENT FINAL_PART-1.1082 IS DISTORTING EXCESSIVELY.
   ELEMENT FINAL_PART-1.1084 IS DISTORTING EXCESSIVELY.
   ELEMENT FINAL_PART-1.1085 IS DISTORTING EXCESSIVELY.
   ELEMENT FINAL_PART-1.1086 IS DISTORTING EXCESSIVELY.
   ELEMENT FINAL_PART-1.1087 IS DISTORTING EXCESSIVELY.
   ELEMENT FINAL_PART-1.1089 IS DISTORTING EXCESSIVELY.
   ELEMENT FINAL_PART-1.1093 IS DISTORTING EXCESSIVELY.
   ELEMENT FINAL_PART-1.1094 IS DISTORTING EXCESSIVELY.
   ELEMENT FINAL_PART-1.1095 IS DISTORTING EXCESSIVELY.
   ELEMENT FINAL_PART-1.1097 IS DISTORTING EXCESSIVELY.
   ELEMENT FINAL_PART-1.1098 IS DISTORTING EXCESSIVELY.
   ELEMENT FINAL_PART-1.1099 IS DISTORTING EXCESSIVELY.
   ELEMENT FINAL_PART-1.1103 IS DISTORTING EXCESSIVELY.
   ELEMENT FINAL_PART-1.1104 IS DISTORTING EXCESSIVELY.
   ELEMENT FINAL_PART-1.1105 IS DISTORTING EXCESSIVELY.
   ELEMENT FINAL_PART-1.1107 IS DISTORTING EXCESSIVELY.
   ELEMENT FINAL_PART-1.1108 IS DISTORTING EXCESSIVELY.
   ELEMENT FINAL_PART-1.1111 IS DISTORTING EXCESSIVELY.
   ELEMENT FINAL_PART-1.1112 IS DISTORTING EXCESSIVELY.
   ELEMENT FINAL_PART-1.1113 IS DISTORTING EXCESSIVELY.
   ELEMENT FINAL_PART-1.1115 IS DISTORTING EXCESSIVELY.
   ELEMENT FINAL_PART-1.1116 IS DISTORTING EXCESSIVELY.
   ELEMENT FINAL_PART-1.1118 IS DISTORTING EXCESSIVELY.
   ELEMENT FINAL_PART-1.1119 IS DISTORTING EXCESSIVELY.
   ELEMENT FINAL_PART-1.1122 IS DISTORTING EXCESSIVELY.
   ELEMENT FINAL_PART-1.1124 IS DISTORTING EXCESSIVELY.
   ELEMENT FINAL_PART-1.1125 IS DISTORTING EXCESSIVELY.
   ELEMENT FINAL_PART-1.1126 IS DISTORTING EXCESSIVELY.
   ELEMENT FINAL_PART-1.1128 IS DISTORTING EXCESSIVELY.
   ELEMENT FINAL_PART-1.1130 IS DISTORTING EXCESSIVELY.
   ELEMENT FINAL_PART-1.1134 IS DISTORTING EXCESSIVELY.
   ELEMENT FINAL_PART-1.1136 IS DISTORTING EXCESSIVELY.
   ELEMENT FINAL_PART-1.1137 IS DISTORTING EXCESSIVELY.
   ELEMENT FINAL_PART-1.1139 IS DISTORTING EXCESSIVELY.
   ELEMENT FINAL_PART-1.1141 IS DISTORTING EXCESSIVELY.
   ELEMENT FINAL_PART-1.1144 IS DISTORTING EXCESSIVELY.
   ELEMENT FINAL_PART-1.1145 IS DISTORTING EXCESSIVELY.
   ELEMENT FINAL_PART-1.1148 IS DISTORTING EXCESSIVELY.
   ELEMENT FINAL_PART-1.1149 IS DISTORTING EXCESSIVELY.
   ELEMENT FINAL_PART-1.1151 IS DISTORTING EXCESSIVELY.
   ELEMENT FINAL_PART-1.1152 IS DISTORTING EXCESSIVELY.
   ELEMENT FINAL_PART-1.1153 IS DISTORTING EXCESSIVELY.
   ELEMENT FINAL_PART-1.1156 IS DISTORTING EXCESSIVELY.
   ELEMENT FINAL_PART-1.1157 IS DISTORTING EXCESSIVELY.
   ELEMENT FINAL_PART-1.1158 IS DISTORTING EXCESSIVELY.
   ELEMENT FINAL_PART-1.1161 IS DISTORTING EXCESSIVELY.
   ELEMENT FINAL_PART-1.1164 IS DISTORTING EXCESSIVELY.
   ELEMENT FINAL_PART-1.1167 IS DISTORTING EXCESSIVELY.
   ELEMENT FINAL_PART-1.1168 IS DISTORTING EXCESSIVELY.
   ELEMENT FINAL_PART-1.1172 IS DISTORTING EXCESSIVELY.
   ELEMENT FINAL_PART-1.1177 IS DISTORTING EXCESSIVELY.
   ELEMENT FINAL_PART-1.1181 IS DISTORTING EXCESSIVELY.
   ELEMENT FINAL_PART-1.1182 IS DISTORTING EXCESSIVELY.
   ELEMENT FINAL_PART-1.1183 IS DISTORTING EXCESSIVELY.
   ELEMENT FINAL_PART-1.1184 IS DISTORTING EXCESSIVELY.
   ELEMENT FINAL_PART-1.1186 IS DISTORTING EXCESSIVELY.
   ELEMENT FINAL_PART-1.1191 IS DISTORTING EXCESSIVELY.
   ELEMENT FINAL_PART-1.1192 IS DISTORTING EXCESSIVELY.
   ELEMENT FINAL_PART-1.1194 IS DISTORTING EXCESSIVELY.
   ELEMENT FINAL_PART-1.1195 IS DISTORTING EXCESSIVELY.
   ELEMENT FINAL_PART-1.1196 IS DISTORTING EXCESSIVELY.
   ELEMENT FINAL_PART-1.1197 IS DISTORTING EXCESSIVELY.
   ELEMENT FINAL_PART-1.1198 IS DISTORTING EXCESSIVELY.
   ELEMENT FINAL_PART-1.1202 IS DISTORTING EXCESSIVELY.
   ELEMENT FINAL_PART-1.1203 IS DISTORTING EXCESSIVELY.
   ELEMENT FINAL_PART-1.1204 IS DISTORTING EXCESSIVELY.
   ELEMENT FINAL_PART-1.1207 IS DISTORTING EXCESSIVELY.
   ELEMENT FINAL_PART-1.1213 IS DISTORTING EXCESSIVELY.
   ELEMENT FINAL_PART-1.1219 IS DISTORTING EXCESSIVELY.
   ELEMENT FINAL_PART-1.1220 IS DISTORTING EXCESSIVELY.
   ELEMENT FINAL_PART-1.1222 IS DISTORTING EXCESSIVELY.
   ELEMENT FINAL_PART-1.1227 IS DISTORTING EXCESSIVELY.
   ELEMENT FINAL_PART-1.1231 IS DISTORTING EXCESSIVELY.
   ELEMENT FINAL_PART-1.1233 IS DISTORTING EXCESSIVELY.
   ELEMENT FINAL_PART-1.1238 IS DISTORTING EXCESSIVELY.
   ELEMENT FINAL_PART-1.1242 IS DISTORTING EXCESSIVELY.
   ELEMENT FINAL_PART-1.1249 IS DISTORTING EXCESSIVELY.
   ELEMENT FINAL_PART-1.1253 IS DISTORTING EXCESSIVELY.
   ELEMENT FINAL_PART-1.1254 IS DISTORTING EXCESSIVELY.
   ELEMENT FINAL_PART-1.1255 IS DISTORTING EXCESSIVELY.
   ELEMENT FINAL_PART-1.1257 IS DISTORTING EXCESSIVELY.
   ELEMENT FINAL_PART-1.1258 IS DISTORTING EXCESSIVELY.
   ELEMENT FINAL_PART-1.1260 IS DISTORTING EXCESSIVELY.
   ELEMENT FINAL_PART-1.1261 IS DISTORTING EXCESSIVELY.
   ELEMENT FINAL_PART-1.1262 IS DISTORTING EXCESSIVELY.
   ELEMENT FINAL_PART-1.1269 IS DISTORTING EXCESSIVELY.
   ELEMENT FINAL_PART-1.1270 IS DISTORTING EXCESSIVELY.
   ELEMENT FINAL_PART-1.1273 IS DISTORTING EXCESSIVELY.
   ELEMENT FINAL_PART-1.1274 IS DISTORTING EXCESSIVELY.
   ELEMENT FINAL_PART-1.1275 IS DISTORTING EXCESSIVELY.
   ELEMENT FINAL_PART-1.1276 IS DISTORTING EXCESSIVELY.
   ELEMENT FINAL_PART-1.1282 IS DISTORTING EXCESSIVELY.
   ELEMENT FINAL_PART-1.1284 IS DISTORTING EXCESSIVELY.
   ELEMENT FINAL_PART-1.1290 IS DISTORTING EXCESSIVELY.
   ELEMENT FINAL_PART-1.1292 IS DISTORTING EXCESSIVELY.
   ELEMENT FINAL_PART-1.1293 IS DISTORTING EXCESSIVELY.
   ELEMENT FINAL_PART-1.1295 IS DISTORTING EXCESSIVELY.
   ELEMENT FINAL_PART-1.1296 IS DISTORTING EXCESSIVELY.
   ELEMENT FINAL_PART-1.1298 IS DISTORTING EXCESSIVELY.
   ELEMENT FINAL_PART-1.1299 IS DISTORTING EXCESSIVELY.
   ELEMENT FINAL_PART-1.1300 IS DISTORTING EXCESSIVELY.
   ELEMENT FINAL_PART-1.1302 IS DISTORTING EXCESSIVELY.
   ELEMENT FINAL_PART-1.1303 IS DISTORTING EXCESSIVELY.
   ELEMENT FINAL_PART-1.1304 IS DISTORTING EXCESSIVELY.
   ELEMENT FINAL_PART-1.1305 IS DISTORTING EXCESSIVELY.
   ELEMENT FINAL_PART-1.1309 IS DISTORTING EXCESSIVELY.
   ELEMENT FINAL_PART-1.1310 IS DISTORTING EXCESSIVELY.
   ELEMENT FINAL_PART-1.1312 IS DISTORTING EXCESSIVELY.
   ELEMENT FINAL_PART-1.1314 IS DISTORTING EXCESSIVELY.
   ELEMENT FINAL_PART-1.1315 IS DISTORTING EXCESSIVELY.
   ELEMENT FINAL_PART-1.1316 IS DISTORTING EXCESSIVELY.
   ELEMENT FINAL_PART-1.1319 IS DISTORTING EXCESSIVELY.
   ELEMENT FINAL_PART-1.1324 IS DISTORTING EXCESSIVELY.
   ELEMENT FINAL_PART-1.1326 IS DISTORTING EXCESSIVELY.
   ELEMENT FINAL_PART-1.1328 IS DISTORTING EXCESSIVELY.
   ELEMENT FINAL_PART-1.1330 IS DISTORTING EXCESSIVELY.
   ELEMENT FINAL_PART-1.1337 IS DISTORTING EXCESSIVELY.
   ELEMENT FINAL_PART-1.1338 IS DISTORTING EXCESSIVELY.
   ELEMENT FINAL_PART-1.1340 IS DISTORTING EXCESSIVELY.
   ELEMENT FINAL_PART-1.1342 IS DISTORTING EXCESSIVELY.
   ELEMENT FINAL_PART-1.1343 IS DISTORTING EXCESSIVELY.
   ELEMENT FINAL_PART-1.1346 IS DISTORTING EXCESSIVELY.
   ELEMENT FINAL_PART-1.1348 IS DISTORTING EXCESSIVELY.
   ELEMENT FINAL_PART-1.1349 IS DISTORTING EXCESSIVELY.
   ELEMENT FINAL_PART-1.1350 IS DISTORTING EXCESSIVELY.
   ELEMENT FINAL_PART-1.1351 IS DISTORTING EXCESSIVELY.
   ELEMENT FINAL_PART-1.1356 IS DISTORTING EXCESSIVELY.
   ELEMENT FINAL_PART-1.1357 IS DISTORTING EXCESSIVELY.
   ELEMENT FINAL_PART-1.1358 IS DISTORTING EXCESSIVELY.
   ELEMENT FINAL_PART-1.1359 IS DISTORTING EXCESSIVELY.
   ELEMENT FINAL_PART-1.1362 IS DISTORTING EXCESSIVELY.
   ELEMENT FINAL_PART-1.1363 IS DISTORTING EXCESSIVELY.
   ELEMENT FINAL_PART-1.1365 IS DISTORTING EXCESSIVELY.
   ELEMENT FINAL_PART-1.1369 IS DISTORTING EXCESSIVELY.
   ELEMENT FINAL_PART-1.1370 IS DISTORTING EXCESSIVELY.
   ELEMENT FINAL_PART-1.1371 IS DISTORTING EXCESSIVELY.
   ELEMENT FINAL_PART-1.1372 IS DISTORTING EXCESSIVELY.
   ELEMENT FINAL_PART-1.1373 IS DISTORTING EXCESSIVELY.
   ELEMENT FINAL_PART-1.1375 IS DISTORTING EXCESSIVELY.
   ELEMENT FINAL_PART-1.1378 IS DISTORTING EXCESSIVELY.
   ELEMENT FINAL_PART-1.1381 IS DISTORTING EXCESSIVELY.
   ELEMENT FINAL_PART-1.1384 IS DISTORTING EXCESSIVELY.
   ELEMENT FINAL_PART-1.1385 IS DISTORTING EXCESSIVELY.
   ELEMENT FINAL_PART-1.1387 IS DISTORTING EXCESSIVELY.
   ELEMENT FINAL_PART-1.1388 IS DISTORTING EXCESSIVELY.
   ELEMENT FINAL_PART-1.1389 IS DISTORTING EXCESSIVELY.
   ELEMENT FINAL_PART-1.1392 IS DISTORTING EXCESSIVELY.
   ELEMENT FINAL_PART-1.1394 IS DISTORTING EXCESSIVELY.
   ELEMENT FINAL_PART-1.1395 IS DISTORTING EXCESSIVELY.
   ELEMENT FINAL_PART-1.1397 IS DISTORTING EXCESSIVELY.
   ELEMENT FINAL_PART-1.1398 IS DISTORTING EXCESSIVELY.
   ELEMENT FINAL_PART-1.1400 IS DISTORTING EXCESSIVELY.
   ELEMENT FINAL_PART-1.1402 IS DISTORTING EXCESSIVELY.
   ELEMENT FINAL_PART-1.1403 IS DISTORTING EXCESSIVELY.
   ELEMENT FINAL_PART-1.1405 IS DISTORTING EXCESSIVELY.
   ELEMENT FINAL_PART-1.1406 IS DISTORTING EXCESSIVELY.
   ELEMENT FINAL_PART-1.1409 IS DISTORTING EXCESSIVELY.
   ELEMENT FINAL_PART-1.1416 IS DISTORTING EXCESSIVELY.
   ELEMENT FINAL_PART-1.1419 IS DISTORTING EXCESSIVELY.
   ELEMENT FINAL_PART-1.1424 IS DISTORTING EXCESSIVELY.
   ELEMENT FINAL_PART-1.1425 IS DISTORTING EXCESSIVELY.
   ELEMENT FINAL_PART-1.1426 IS DISTORTING EXCESSIVELY.
   ELEMENT FINAL_PART-1.1428 IS DISTORTING EXCESSIVELY.
   ELEMENT FINAL_PART-1.1429 IS DISTORTING EXCESSIVELY.
   ELEMENT FINAL_PART-1.1430 IS DISTORTING EXCESSIVELY.
   ELEMENT FINAL_PART-1.1432 IS DISTORTING EXCESSIVELY.
   ELEMENT FINAL_PART-1.1433 IS DISTORTING EXCESSIVELY.
   ELEMENT FINAL_PART-1.1436 IS DISTORTING EXCESSIVELY.
   ELEMENT FINAL_PART-1.1439 IS DISTORTING EXCESSIVELY.
   ELEMENT FINAL_PART-1.1440 IS DISTORTING EXCESSIVELY.
   ELEMENT FINAL_PART-1.1443 IS DISTORTING EXCESSIVELY.
   ELEMENT FINAL_PART-1.1444 IS DISTORTING EXCESSIVELY.
   ELEMENT FINAL_PART-1.1447 IS DISTORTING EXCESSIVELY.
   ELEMENT FINAL_PART-1.1449 IS DISTORTING EXCESSIVELY.
   ELEMENT FINAL_PART-1.1450 IS DISTORTING EXCESSIVELY.
   ELEMENT FINAL_PART-1.1451 IS DISTORTING EXCESSIVELY.
   ELEMENT FINAL_PART-1.1453 IS DISTORTING EXCESSIVELY.
   ELEMENT FINAL_PART-1.1455 IS DISTORTING EXCESSIVELY.
   ELEMENT FINAL_PART-1.1459 IS DISTORTING EXCESSIVELY.
   ELEMENT FINAL_PART-1.1460 IS DISTORTING EXCESSIVELY.
   ELEMENT FINAL_PART-1.1461 IS DISTORTING EXCESSIVELY.
   ELEMENT FINAL_PART-1.1462 IS DISTORTING EXCESSIVELY.
   ELEMENT FINAL_PART-1.1463 IS DISTORTING EXCESSIVELY.
   ELEMENT FINAL_PART-1.1465 IS DISTORTING EXCESSIVELY.
   ELEMENT FINAL_PART-1.1466 IS DISTORTING EXCESSIVELY.
   ELEMENT FINAL_PART-1.1467 IS DISTORTING EXCESSIVELY.
   ELEMENT FINAL_PART-1.1469 IS DISTORTING EXCESSIVELY.
   ELEMENT FINAL_PART-1.1470 IS DISTORTING EXCESSIVELY.
   ELEMENT FINAL_PART-1.1471 IS DISTORTING EXCESSIVELY.
   ELEMENT FINAL_PART-1.1473 IS DISTORTING EXCESSIVELY.
   ELEMENT FINAL_PART-1.1474 IS DISTORTING EXCESSIVELY.
   ELEMENT FINAL_PART-1.1475 IS DISTORTING EXCESSIVELY.
   ELEMENT FINAL_PART-1.1476 IS DISTORTING EXCESSIVELY.
   ELEMENT FINAL_PART-1.1477 IS DISTORTING EXCESSIVELY.
   ELEMENT FINAL_PART-1.1479 IS DISTORTING EXCESSIVELY.
   ELEMENT FINAL_PART-1.1483 IS DISTORTING EXCESSIVELY.
   ELEMENT FINAL_PART-1.1484 IS DISTORTING EXCESSIVELY.
   ELEMENT FINAL_PART-1.1489 IS DISTORTING EXCESSIVELY.
   ELEMENT FINAL_PART-1.1491 IS DISTORTING EXCESSIVELY.
   ELEMENT FINAL_PART-1.1494 IS DISTORTING EXCESSIVELY.
   ELEMENT FINAL_PART-1.1496 IS DISTORTING EXCESSIVELY.
   ELEMENT FINAL_PART-1.1498 IS DISTORTING EXCESSIVELY.
   ELEMENT FINAL_PART-1.1500 IS DISTORTING EXCESSIVELY.
   ELEMENT FINAL_PART-1.1502 IS DISTORTING EXCESSIVELY.
   ELEMENT FINAL_PART-1.1504 IS DISTORTING EXCESSIVELY.
   ELEMENT FINAL_PART-1.1506 IS DISTORTING EXCESSIVELY.
   ELEMENT FINAL_PART-1.1507 IS DISTORTING EXCESSIVELY.
   ELEMENT FINAL_PART-1.1509 IS DISTORTING EXCESSIVELY.
   ELEMENT FINAL_PART-1.1511 IS DISTORTING EXCESSIVELY.
   ELEMENT FINAL_PART-1.1513 IS DISTORTING EXCESSIVELY.
   ELEMENT FINAL_PART-1.1516 IS DISTORTING EXCESSIVELY.
   ELEMENT FINAL_PART-1.1519 IS DISTORTING EXCESSIVELY.
   ELEMENT FINAL_PART-1.1520 IS DISTORTING EXCESSIVELY.
   ELEMENT FINAL_PART-1.1521 IS DISTORTING EXCESSIVELY.
   ELEMENT FINAL_PART-1.1522 IS DISTORTING EXCESSIVELY.
   ELEMENT FINAL_PART-1.1524 IS DISTORTING EXCESSIVELY.
   ELEMENT FINAL_PART-1.1526 IS DISTORTING EXCESSIVELY.
   ELEMENT FINAL_PART-1.1528 IS DISTORTING EXCESSIVELY.
   ELEMENT FINAL_PART-1.1529 IS DISTORTING EXCESSIVELY.
   ELEMENT FINAL_PART-1.1533 IS DISTORTING EXCESSIVELY.
   ELEMENT FINAL_PART-1.1536 IS DISTORTING EXCESSIVELY.
   ELEMENT FINAL_PART-1.1537 IS DISTORTING EXCESSIVELY.
   ELEMENT FINAL_PART-1.1540 IS DISTORTING EXCESSIVELY.
   ELEMENT FINAL_PART-1.1541 IS DISTORTING EXCESSIVELY.
   ELEMENT FINAL_PART-1.1542 IS DISTORTING EXCESSIVELY.
   ELEMENT FINAL_PART-1.1543 IS DISTORTING EXCESSIVELY.
   ELEMENT FINAL_PART-1.1544 IS DISTORTING EXCESSIVELY.
   ELEMENT FINAL_PART-1.1545 IS DISTORTING EXCESSIVELY.
   ELEMENT FINAL_PART-1.1547 IS DISTORTING EXCESSIVELY.
   ELEMENT FINAL_PART-1.1551 IS DISTORTING EXCESSIVELY.
   ELEMENT FINAL_PART-1.1552 IS DISTORTING EXCESSIVELY.
   ELEMENT FINAL_PART-1.1555 IS DISTORTING EXCESSIVELY.
   ELEMENT FINAL_PART-1.1556 IS DISTORTING EXCESSIVELY.
   ELEMENT FINAL_PART-1.1558 IS DISTORTING EXCESSIVELY.
   ELEMENT FINAL_PART-1.1560 IS DISTORTING EXCESSIVELY.
   ELEMENT FINAL_PART-1.1563 IS DISTORTING EXCESSIVELY.
   ELEMENT FINAL_PART-1.1564 IS DISTORTING EXCESSIVELY.
   ELEMENT FINAL_PART-1.1565 IS DISTORTING EXCESSIVELY.
   ELEMENT FINAL_PART-1.1571 IS DISTORTING EXCESSIVELY.
   ELEMENT FINAL_PART-1.1574 IS DISTORTING EXCESSIVELY.
   ELEMENT FINAL_PART-1.1577 IS DISTORTING EXCESSIVELY.
   ELEMENT FINAL_PART-1.1578 IS DISTORTING EXCESSIVELY.
   ELEMENT FINAL_PART-1.1579 IS DISTORTING EXCESSIVELY.
   ELEMENT FINAL_PART-1.1580 IS DISTORTING EXCESSIVELY.
   ELEMENT FINAL_PART-1.1581 IS DISTORTING EXCESSIVELY.
   ELEMENT FINAL_PART-1.1584 IS DISTORTING EXCESSIVELY.
   ELEMENT FINAL_PART-1.1585 IS DISTORTING EXCESSIVELY.
   ELEMENT FINAL_PART-1.1586 IS DISTORTING EXCESSIVELY.
   ELEMENT FINAL_PART-1.1587 IS DISTORTING EXCESSIVELY.
   ELEMENT FINAL_PART-1.1588 IS DISTORTING EXCESSIVELY.
   ELEMENT FINAL_PART-1.1591 IS DISTORTING EXCESSIVELY.
   ELEMENT FINAL_PART-1.1592 IS DISTORTING EXCESSIVELY.
   ELEMENT FINAL_PART-1.1596 IS DISTORTING EXCESSIVELY.
   ELEMENT FINAL_PART-1.1598 IS DISTORTING EXCESSIVELY.
   ELEMENT FINAL_PART-1.1599 IS DISTORTING EXCESSIVELY.
   ELEMENT FINAL_PART-1.1600 IS DISTORTING EXCESSIVELY.
   ELEMENT FINAL_PART-1.1602 IS DISTORTING EXCESSIVELY.
   ELEMENT FINAL_PART-1.1607 IS DISTORTING EXCESSIVELY.
   ELEMENT FINAL_PART-1.1608 IS DISTORTING EXCESSIVELY.
   ELEMENT FINAL_PART-1.1610 IS DISTORTING EXCESSIVELY.
   ELEMENT FINAL_PART-1.1614 IS DISTORTING EXCESSIVELY.
   ELEMENT FINAL_PART-1.1615 IS DISTORTING EXCESSIVELY.
   ELEMENT FINAL_PART-1.1616 IS DISTORTING EXCESSIVELY.
   ELEMENT FINAL_PART-1.1617 IS DISTORTING EXCESSIVELY.
   ELEMENT FINAL_PART-1.1620 IS DISTORTING EXCESSIVELY.
   ELEMENT FINAL_PART-1.1621 IS DISTORTING EXCESSIVELY.
   ELEMENT FINAL_PART-1.1623 IS DISTORTING EXCESSIVELY.
   ELEMENT FINAL_PART-1.1624 IS DISTORTING EXCESSIVELY.
   ELEMENT FINAL_PART-1.1629 IS DISTORTING EXCESSIVELY.
   ELEMENT FINAL_PART-1.1630 IS DISTORTING EXCESSIVELY.
   ELEMENT FINAL_PART-1.1631 IS DISTORTING EXCESSIVELY.
   ELEMENT FINAL_PART-1.1633 IS DISTORTING EXCESSIVELY.
   ELEMENT FINAL_PART-1.1634 IS DISTORTING EXCESSIVELY.
   ELEMENT FINAL_PART-1.1637 IS DISTORTING EXCESSIVELY.
   ELEMENT FINAL_PART-1.1638 IS DISTORTING EXCESSIVELY.
   ELEMENT FINAL_PART-1.1639 IS DISTORTING EXCESSIVELY.
   ELEMENT FINAL_PART-1.1640 IS DISTORTING EXCESSIVELY.
   ELEMENT FINAL_PART-1.1646 IS DISTORTING EXCESSIVELY.
   ELEMENT FINAL_PART-1.1648 IS DISTORTING EXCESSIVELY.
   ELEMENT FINAL_PART-1.1649 IS DISTORTING EXCESSIVELY.
   ELEMENT FINAL_PART-1.1650 IS DISTORTING EXCESSIVELY.
   ELEMENT FINAL_PART-1.1653 IS DISTORTING EXCESSIVELY.
   ELEMENT FINAL_PART-1.1656 IS DISTORTING EXCESSIVELY.
   ELEMENT FINAL_PART-1.1657 IS DISTORTING EXCESSIVELY.
   ELEMENT FINAL_PART-1.1658 IS DISTORTING EXCESSIVELY.
   ELEMENT FINAL_PART-1.1665 IS DISTORTING EXCESSIVELY.
   ELEMENT FINAL_PART-1.1666 IS DISTORTING EXCESSIVELY.
   ELEMENT FINAL_PART-1.1667 IS DISTORTING EXCESSIVELY.
   ELEMENT FINAL_PART-1.1671 IS DISTORTING EXCESSIVELY.
   ELEMENT FINAL_PART-1.1672 IS DISTORTING EXCESSIVELY.
   ELEMENT FINAL_PART-1.1686 IS DISTORTING EXCESSIVELY.
   ELEMENT FINAL_PART-1.1693 IS DISTORTING EXCESSIVELY.
   ELEMENT FINAL_PART-1.1695 IS DISTORTING EXCESSIVELY.
   ELEMENT FINAL_PART-1.1696 IS DISTORTING EXCESSIVELY.
   ELEMENT FINAL_PART-1.1697 IS DISTORTING EXCESSIVELY.
   ELEMENT FINAL_PART-1.1698 IS DISTORTING EXCESSIVELY.
   ELEMENT FINAL_PART-1.1699 IS DISTORTING EXCESSIVELY.
   ELEMENT FINAL_PART-1.1701 IS DISTORTING EXCESSIVELY.
   ELEMENT FINAL_PART-1.1704 IS DISTORTING EXCESSIVELY.
   ELEMENT FINAL_PART-1.1705 IS DISTORTING EXCESSIVELY.
   ELEMENT FINAL_PART-1.1706 IS DISTORTING EXCESSIVELY.
   ELEMENT FINAL_PART-1.1708 IS DISTORTING EXCESSIVELY.
   ELEMENT FINAL_PART-1.1709 IS DISTORTING EXCESSIVELY.
   ELEMENT FINAL_PART-1.1711 IS DISTORTING EXCESSIVELY.
   ELEMENT FINAL_PART-1.1713 IS DISTORTING EXCESSIVELY.
   ELEMENT FINAL_PART-1.1714 IS DISTORTING EXCESSIVELY.
   ELEMENT FINAL_PART-1.1715 IS DISTORTING EXCESSIVELY.
   ELEMENT FINAL_PART-1.1717 IS DISTORTING EXCESSIVELY.
   ELEMENT FINAL_PART-1.1719 IS DISTORTING EXCESSIVELY.
   ELEMENT FINAL_PART-1.1720 IS DISTORTING EXCESSIVELY.
   ELEMENT FINAL_PART-1.1722 IS DISTORTING EXCESSIVELY.
   ELEMENT FINAL_PART-1.1724 IS DISTORTING EXCESSIVELY.
   ELEMENT FINAL_PART-1.1725 IS DISTORTING EXCESSIVELY.
   ELEMENT FINAL_PART-1.1726 IS DISTORTING EXCESSIVELY.
   ELEMENT FINAL_PART-1.1729 IS DISTORTING EXCESSIVELY.
   ELEMENT FINAL_PART-1.1731 IS DISTORTING EXCESSIVELY.
   ELEMENT FINAL_PART-1.1734 IS DISTORTING EXCESSIVELY.
   ELEMENT FINAL_PART-1.1736 IS DISTORTING EXCESSIVELY.
   ELEMENT FINAL_PART-1.1740 IS DISTORTING EXCESSIVELY.
   ELEMENT FINAL_PART-1.1742 IS DISTORTING EXCESSIVELY.
   ELEMENT FINAL_PART-1.1745 IS DISTORTING EXCESSIVELY.
   ELEMENT FINAL_PART-1.1750 IS DISTORTING EXCESSIVELY.
   ELEMENT FINAL_PART-1.1751 IS DISTORTING EXCESSIVELY.
   ELEMENT FINAL_PART-1.1752 IS DISTORTING EXCESSIVELY.
   ELEMENT FINAL_PART-1.1755 IS DISTORTING EXCESSIVELY.
   ELEMENT FINAL_PART-1.1756 IS DISTORTING EXCESSIVELY.
   ELEMENT FINAL_PART-1.1757 IS DISTORTING EXCESSIVELY.
   ELEMENT FINAL_PART-1.1760 IS DISTORTING EXCESSIVELY.
   ELEMENT FINAL_PART-1.1761 IS DISTORTING EXCESSIVELY.
   ELEMENT FINAL_PART-1.1763 IS DISTORTING EXCESSIVELY.
   ELEMENT FINAL_PART-1.1766 IS DISTORTING EXCESSIVELY.
   ELEMENT FINAL_PART-1.1768 IS DISTORTING EXCESSIVELY.
   ELEMENT FINAL_PART-1.1770 IS DISTORTING EXCESSIVELY.
   ELEMENT FINAL_PART-1.1772 IS DISTORTING EXCESSIVELY.
   ELEMENT FINAL_PART-1.1773 IS DISTORTING EXCESSIVELY.
   ELEMENT FINAL_PART-1.1776 IS DISTORTING EXCESSIVELY.
   ELEMENT FINAL_PART-1.1777 IS DISTORTING EXCESSIVELY.
   ELEMENT FINAL_PART-1.1778 IS DISTORTING EXCESSIVELY.
   ELEMENT FINAL_PART-1.1779 IS DISTORTING EXCESSIVELY.
   ELEMENT FINAL_PART-1.1783 IS DISTORTING EXCESSIVELY.
   ELEMENT FINAL_PART-1.1784 IS DISTORTING EXCESSIVELY.
   ELEMENT FINAL_PART-1.1786 IS DISTORTING EXCESSIVELY.
   ELEMENT FINAL_PART-1.1791 IS DISTORTING EXCESSIVELY.
   ELEMENT FINAL_PART-1.1792 IS DISTORTING EXCESSIVELY.
   ELEMENT FINAL_PART-1.1794 IS DISTORTING EXCESSIVELY.
   ELEMENT FINAL_PART-1.1796 IS DISTORTING EXCESSIVELY.
   ELEMENT FINAL_PART-1.1797 IS DISTORTING EXCESSIVELY.
   ELEMENT FINAL_PART-1.1799 IS DISTORTING EXCESSIVELY.
   ELEMENT FINAL_PART-1.1800 IS DISTORTING EXCESSIVELY.
   ELEMENT FINAL_PART-1.1803 IS DISTORTING EXCESSIVELY.
   ELEMENT FINAL_PART-1.1804 IS DISTORTING EXCESSIVELY.
   ELEMENT FINAL_PART-1.1805 IS DISTORTING EXCESSIVELY.
   ELEMENT FINAL_PART-1.1806 IS DISTORTING EXCESSIVELY.
   ELEMENT FINAL_PART-1.1808 IS DISTORTING EXCESSIVELY.
   ELEMENT FINAL_PART-1.1810 IS DISTORTING EXCESSIVELY.
   ELEMENT FINAL_PART-1.1812 IS DISTORTING EXCESSIVELY.
   ELEMENT FINAL_PART-1.1813 IS DISTORTING EXCESSIVELY.
   ELEMENT FINAL_PART-1.1817 IS DISTORTING EXCESSIVELY.
   ELEMENT FINAL_PART-1.1818 IS DISTORTING EXCESSIVELY.
   ELEMENT FINAL_PART-1.1823 IS DISTORTING EXCESSIVELY.
   ELEMENT FINAL_PART-1.1824 IS DISTORTING EXCESSIVELY.
   ELEMENT FINAL_PART-1.1827 IS DISTORTING EXCESSIVELY.
   ELEMENT FINAL_PART-1.1828 IS DISTORTING EXCESSIVELY.
   ELEMENT FINAL_PART-1.1829 IS DISTORTING EXCESSIVELY.
   ELEMENT FINAL_PART-1.1830 IS DISTORTING EXCESSIVELY.
   ELEMENT FINAL_PART-1.1836 IS DISTORTING EXCESSIVELY.
   ELEMENT FINAL_PART-1.1839 IS DISTORTING EXCESSIVELY.
   ELEMENT FINAL_PART-1.1843 IS DISTORTING EXCESSIVELY.
   ELEMENT FINAL_PART-1.1844 IS DISTORTING EXCESSIVELY.
   ELEMENT FINAL_PART-1.1852 IS DISTORTING EXCESSIVELY.
   ELEMENT FINAL_PART-1.1853 IS DISTORTING EXCESSIVELY.
   ELEMENT FINAL_PART-1.1854 IS DISTORTING EXCESSIVELY.
   ELEMENT FINAL_PART-1.1860 IS DISTORTING EXCESSIVELY.
   ELEMENT FINAL_PART-1.1861 IS DISTORTING EXCESSIVELY.
   ELEMENT FINAL_PART-1.1863 IS DISTORTING EXCESSIVELY.
   ELEMENT FINAL_PART-1.1864 IS DISTORTING EXCESSIVELY.
   ELEMENT FINAL_PART-1.1866 IS DISTORTING EXCESSIVELY.
   ELEMENT FINAL_PART-1.1867 IS DISTORTING EXCESSIVELY.
   ELEMENT FINAL_PART-1.1868 IS DISTORTING EXCESSIVELY.
   ELEMENT FINAL_PART-1.1874 IS DISTORTING EXCESSIVELY.
   ELEMENT FINAL_PART-1.1876 IS DISTORTING EXCESSIVELY.
   ELEMENT FINAL_PART-1.1877 IS DISTORTING EXCESSIVELY.
   ELEMENT FINAL_PART-1.1879 IS DISTORTING EXCESSIVELY.
   ELEMENT FINAL_PART-1.1880 IS DISTORTING EXCESSIVELY.
   ELEMENT FINAL_PART-1.1881 IS DISTORTING EXCESSIVELY.
   ELEMENT FINAL_PART-1.1882 IS DISTORTING EXCESSIVELY.
   ELEMENT FINAL_PART-1.1884 IS DISTORTING EXCESSIVELY.
   ELEMENT FINAL_PART-1.1886 IS DISTORTING EXCESSIVELY.
   ELEMENT FINAL_PART-1.1888 IS DISTORTING EXCESSIVELY.
   ELEMENT FINAL_PART-1.1889 IS DISTORTING EXCESSIVELY.
   ELEMENT FINAL_PART-1.1890 IS DISTORTING EXCESSIVELY.
   ELEMENT FINAL_PART-1.1892 IS DISTORTING EXCESSIVELY.
   ELEMENT FINAL_PART-1.1893 IS DISTORTING EXCESSIVELY.
   ELEMENT FINAL_PART-1.1895 IS DISTORTING EXCESSIVELY.
   ELEMENT FINAL_PART-1.1896 IS DISTORTING EXCESSIVELY.
   ELEMENT FINAL_PART-1.1901 IS DISTORTING EXCESSIVELY.
   ELEMENT FINAL_PART-1.1902 IS DISTORTING EXCESSIVELY.
   ELEMENT FINAL_PART-1.1903 IS DISTORTING EXCESSIVELY.
   ELEMENT FINAL_PART-1.1904 IS DISTORTING EXCESSIVELY.
   ELEMENT FINAL_PART-1.1905 IS DISTORTING EXCESSIVELY.
   ELEMENT FINAL_PART-1.1907 IS DISTORTING EXCESSIVELY.
   ELEMENT FINAL_PART-1.1908 IS DISTORTING EXCESSIVELY.
   ELEMENT FINAL_PART-1.1909 IS DISTORTING EXCESSIVELY.
   ELEMENT FINAL_PART-1.1910 IS DISTORTING EXCESSIVELY.
   ELEMENT FINAL_PART-1.1911 IS DISTORTING EXCESSIVELY.
   ELEMENT FINAL_PART-1.1916 IS DISTORTING EXCESSIVELY.
   ELEMENT FINAL_PART-1.1917 IS DISTORTING EXCESSIVELY.
   ELEMENT FINAL_PART-1.1918 IS DISTORTING EXCESSIVELY.
   ELEMENT FINAL_PART-1.1919 IS DISTORTING EXCESSIVELY.
   ELEMENT FINAL_PART-1.1923 IS DISTORTING EXCESSIVELY.
   ELEMENT FINAL_PART-1.1924 IS DISTORTING EXCESSIVELY.
   ELEMENT FINAL_PART-1.1925 IS DISTORTING EXCESSIVELY.
   ELEMENT FINAL_PART-1.1927 IS DISTORTING EXCESSIVELY.
   ELEMENT FINAL_PART-1.1929 IS DISTORTING EXCESSIVELY.
   ELEMENT FINAL_PART-1.1930 IS DISTORTING EXCESSIVELY.
   ELEMENT FINAL_PART-1.1931 IS DISTORTING EXCESSIVELY.
   ELEMENT FINAL_PART-1.1932 IS DISTORTING EXCESSIVELY.
   ELEMENT FINAL_PART-1.1933 IS DISTORTING EXCESSIVELY.
   ELEMENT FINAL_PART-1.1935 IS DISTORTING EXCESSIVELY.
   ELEMENT FINAL_PART-1.1942 IS DISTORTING EXCESSIVELY.
   ELEMENT FINAL_PART-1.1943 IS DISTORTING EXCESSIVELY.
   ELEMENT FINAL_PART-1.1948 IS DISTORTING EXCESSIVELY.
   ELEMENT FINAL_PART-1.1949 IS DISTORTING EXCESSIVELY.
   ELEMENT FINAL_PART-1.1951 IS DISTORTING EXCESSIVELY.
   ELEMENT FINAL_PART-1.1956 IS DISTORTING EXCESSIVELY.
   ELEMENT FINAL_PART-1.1957 IS DISTORTING EXCESSIVELY.
   ELEMENT FINAL_PART-1.1958 IS DISTORTING EXCESSIVELY.
   ELEMENT FINAL_PART-1.1959 IS DISTORTING EXCESSIVELY.
   ELEMENT FINAL_PART-1.1963 IS DISTORTING EXCESSIVELY.
   ELEMENT FINAL_PART-1.1966 IS DISTORTING EXCESSIVELY.
   ELEMENT FINAL_PART-1.1969 IS DISTORTING EXCESSIVELY.
   ELEMENT FINAL_PART-1.1970 IS DISTORTING EXCESSIVELY.
   ELEMENT FINAL_PART-1.1974 IS DISTORTING EXCESSIVELY.
   ELEMENT FINAL_PART-1.1977 IS DISTORTING EXCESSIVELY.
   ELEMENT FINAL_PART-1.1979 IS DISTORTING EXCESSIVELY.
   ELEMENT FINAL_PART-1.1990 IS DISTORTING EXCESSIVELY.
   ELEMENT FINAL_PART-1.1993 IS DISTORTING EXCESSIVELY.
   ELEMENT FINAL_PART-1.1995 IS DISTORTING EXCESSIVELY.
   ELEMENT FINAL_PART-1.1996 IS DISTORTING EXCESSIVELY.
   ELEMENT FINAL_PART-1.1997 IS DISTORTING EXCESSIVELY.
   ELEMENT FINAL_PART-1.1998 IS DISTORTING EXCESSIVELY.
   ELEMENT FINAL_PART-1.1999 IS DISTORTING EXCESSIVELY.
   ELEMENT FINAL_PART-1.2000 IS DISTORTING EXCESSIVELY.
   ELEMENT FINAL_PART-1.2001 IS DISTORTING EXCESSIVELY.
   ELEMENT FINAL_PART-1.2002 IS DISTORTING EXCESSIVELY.
   ELEMENT FINAL_PART-1.2003 IS DISTORTING EXCESSIVELY.
   ELEMENT FINAL_PART-1.2007 IS DISTORTING EXCESSIVELY.
   ELEMENT FINAL_PART-1.2008 IS DISTORTING EXCESSIVELY.
   ELEMENT FINAL_PART-1.2010 IS DISTORTING EXCESSIVELY.
   ELEMENT FINAL_PART-1.2013 IS DISTORTING EXCESSIVELY.
   ELEMENT FINAL_PART-1.2016 IS DISTORTING EXCESSIVELY.
   ELEMENT FINAL_PART-1.2017 IS DISTORTING EXCESSIVELY.
   ELEMENT FINAL_PART-1.2019 IS DISTORTING EXCESSIVELY.
   ELEMENT FINAL_PART-1.2021 IS DISTORTING EXCESSIVELY.
   ELEMENT FINAL_PART-1.2022 IS DISTORTING EXCESSIVELY.
   ELEMENT FINAL_PART-1.2023 IS DISTORTING EXCESSIVELY.
   ELEMENT FINAL_PART-1.2024 IS DISTORTING EXCESSIVELY.
   ELEMENT FINAL_PART-1.2026 IS DISTORTING EXCESSIVELY.
   ELEMENT FINAL_PART-1.2027 IS DISTORTING EXCESSIVELY.
   ELEMENT FINAL_PART-1.2031 IS DISTORTING EXCESSIVELY.
   ELEMENT FINAL_PART-1.2033 IS DISTORTING EXCESSIVELY.
   ELEMENT FINAL_PART-1.2035 IS DISTORTING EXCESSIVELY.
   ELEMENT FINAL_PART-1.2036 IS DISTORTING EXCESSIVELY.
   ELEMENT FINAL_PART-1.2037 IS DISTORTING EXCESSIVELY.
   ELEMENT FINAL_PART-1.2038 IS DISTORTING EXCESSIVELY.
   ELEMENT FINAL_PART-1.2040 IS DISTORTING EXCESSIVELY.
   ELEMENT FINAL_PART-1.2041 IS DISTORTING EXCESSIVELY.
   ELEMENT FINAL_PART-1.2042 IS DISTORTING EXCESSIVELY.
   ELEMENT FINAL_PART-1.2043 IS DISTORTING EXCESSIVELY.
   ELEMENT FINAL_PART-1.2045 IS DISTORTING EXCESSIVELY.
   ELEMENT FINAL_PART-1.2046 IS DISTORTING EXCESSIVELY.
   ELEMENT FINAL_PART-1.2050 IS DISTORTING EXCESSIVELY.
   ELEMENT FINAL_PART-1.2051 IS DISTORTING EXCESSIVELY.
   ELEMENT FINAL_PART-1.2054 IS DISTORTING EXCESSIVELY.
   ELEMENT FINAL_PART-1.2055 IS DISTORTING EXCESSIVELY.
   ELEMENT FINAL_PART-1.2056 IS DISTORTING EXCESSIVELY.
   ELEMENT FINAL_PART-1.2057 IS DISTORTING EXCESSIVELY.
   ELEMENT FINAL_PART-1.2061 IS DISTORTING EXCESSIVELY.
   ELEMENT FINAL_PART-1.2062 IS DISTORTING EXCESSIVELY.
   ELEMENT FINAL_PART-1.2063 IS DISTORTING EXCESSIVELY.
   ELEMENT FINAL_PART-1.2066 IS DISTORTING EXCESSIVELY.
   ELEMENT FINAL_PART-1.2068 IS DISTORTING EXCESSIVELY.
   ELEMENT FINAL_PART-1.2070 IS DISTORTING EXCESSIVELY.
   ELEMENT FINAL_PART-1.2071 IS DISTORTING EXCESSIVELY.
   ELEMENT FINAL_PART-1.2077 IS DISTORTING EXCESSIVELY.
   ELEMENT FINAL_PART-1.2082 IS DISTORTING EXCESSIVELY.
   ELEMENT FINAL_PART-1.2083 IS DISTORTING EXCESSIVELY.
   ELEMENT FINAL_PART-1.2084 IS DISTORTING EXCESSIVELY.
   ELEMENT FINAL_PART-1.2087 IS DISTORTING EXCESSIVELY.
   ELEMENT FINAL_PART-1.2089 IS DISTORTING EXCESSIVELY.
   ELEMENT FINAL_PART-1.2090 IS DISTORTING EXCESSIVELY.
   ELEMENT FINAL_PART-1.2092 IS DISTORTING EXCESSIVELY.
   ELEMENT FINAL_PART-1.2095 IS DISTORTING EXCESSIVELY.
   ELEMENT FINAL_PART-1.2097 IS DISTORTING EXCESSIVELY.
   ELEMENT FINAL_PART-1.2098 IS DISTORTING EXCESSIVELY.
   ELEMENT FINAL_PART-1.2100 IS DISTORTING EXCESSIVELY.
   ELEMENT FINAL_PART-1.2101 IS DISTORTING EXCESSIVELY.
   ELEMENT FINAL_PART-1.2102 IS DISTORTING EXCESSIVELY.
   ELEMENT FINAL_PART-1.2107 IS DISTORTING EXCESSIVELY.
   ELEMENT FINAL_PART-1.2110 IS DISTORTING EXCESSIVELY.
   ELEMENT FINAL_PART-1.2113 IS DISTORTING EXCESSIVELY.
   ELEMENT FINAL_PART-1.2114 IS DISTORTING EXCESSIVELY.
   ELEMENT FINAL_PART-1.2115 IS DISTORTING EXCESSIVELY.
   ELEMENT FINAL_PART-1.2116 IS DISTORTING EXCESSIVELY.
   ELEMENT FINAL_PART-1.2117 IS DISTORTING EXCESSIVELY.
   ELEMENT FINAL_PART-1.2119 IS DISTORTING EXCESSIVELY.
   ELEMENT FINAL_PART-1.2120 IS DISTORTING EXCESSIVELY.
   ELEMENT FINAL_PART-1.2121 IS DISTORTING EXCESSIVELY.
   ELEMENT FINAL_PART-1.2123 IS DISTORTING EXCESSIVELY.
   ELEMENT FINAL_PART-1.2124 IS DISTORTING EXCESSIVELY.
   ELEMENT FINAL_PART-1.2125 IS DISTORTING EXCESSIVELY.
   ELEMENT FINAL_PART-1.2126 IS DISTORTING EXCESSIVELY.
   ELEMENT FINAL_PART-1.2127 IS DISTORTING EXCESSIVELY.
   ELEMENT FINAL_PART-1.2130 IS DISTORTING EXCESSIVELY.
   ELEMENT FINAL_PART-1.2133 IS DISTORTING EXCESSIVELY.
   ELEMENT FINAL_PART-1.2135 IS DISTORTING EXCESSIVELY.
   ELEMENT FINAL_PART-1.2137 IS DISTORTING EXCESSIVELY.
   ELEMENT FINAL_PART-1.2139 IS DISTORTING EXCESSIVELY.
   ELEMENT FINAL_PART-1.2141 IS DISTORTING EXCESSIVELY.
   ELEMENT FINAL_PART-1.2142 IS DISTORTING EXCESSIVELY.
   ELEMENT FINAL_PART-1.2144 IS DISTORTING EXCESSIVELY.
   ELEMENT FINAL_PART-1.2145 IS DISTORTING EXCESSIVELY.
   ELEMENT FINAL_PART-1.2146 IS DISTORTING EXCESSIVELY.
   ELEMENT FINAL_PART-1.2150 IS DISTORTING EXCESSIVELY.
   ELEMENT FINAL_PART-1.2153 IS DISTORTING EXCESSIVELY.
   ELEMENT FINAL_PART-1.2154 IS DISTORTING EXCESSIVELY.
   ELEMENT FINAL_PART-1.2158 IS DISTORTING EXCESSIVELY.
   ELEMENT FINAL_PART-1.2160 IS DISTORTING EXCESSIVELY.
   ELEMENT FINAL_PART-1.2162 IS DISTORTING EXCESSIVELY.
   ELEMENT FINAL_PART-1.2163 IS DISTORTING EXCESSIVELY.
   ELEMENT FINAL_PART-1.2170 IS DISTORTING EXCESSIVELY.
   ELEMENT FINAL_PART-1.2173 IS DISTORTING EXCESSIVELY.
   ELEMENT FINAL_PART-1.2175 IS DISTORTING EXCESSIVELY.
   ELEMENT FINAL_PART-1.2176 IS DISTORTING EXCESSIVELY.
   ELEMENT FINAL_PART-1.2178 IS DISTORTING EXCESSIVELY.
   ELEMENT FINAL_PART-1.2179 IS DISTORTING EXCESSIVELY.
   ELEMENT FINAL_PART-1.2180 IS DISTORTING EXCESSIVELY.
   ELEMENT FINAL_PART-1.2181 IS DISTORTING EXCESSIVELY.
   ELEMENT FINAL_PART-1.2182 IS DISTORTING EXCESSIVELY.
   ELEMENT FINAL_PART-1.2184 IS DISTORTING EXCESSIVELY.
   ELEMENT FINAL_PART-1.2185 IS DISTORTING EXCESSIVELY.
   ELEMENT FINAL_PART-1.2186 IS DISTORTING EXCESSIVELY.
   ELEMENT FINAL_PART-1.2187 IS DISTORTING EXCESSIVELY.
   ELEMENT FINAL_PART-1.2188 IS DISTORTING EXCESSIVELY.
   ELEMENT FINAL_PART-1.2193 IS DISTORTING EXCESSIVELY.
   ELEMENT FINAL_PART-1.2195 IS DISTORTING EXCESSIVELY.
   ELEMENT FINAL_PART-1.2197 IS DISTORTING EXCESSIVELY.
   ELEMENT FINAL_PART-1.2201 IS DISTORTING EXCESSIVELY.
   ELEMENT FINAL_PART-1.2206 IS DISTORTING EXCESSIVELY.
   ELEMENT FINAL_PART-1.2207 IS DISTORTING EXCESSIVELY.
   ELEMENT FINAL_PART-1.2208 IS DISTORTING EXCESSIVELY.
   ELEMENT FINAL_PART-1.2209 IS DISTORTING EXCESSIVELY.
   ELEMENT FINAL_PART-1.2210 IS DISTORTING EXCESSIVELY.
   ELEMENT FINAL_PART-1.2212 IS DISTORTING EXCESSIVELY.
   ELEMENT FINAL_PART-1.2213 IS DISTORTING EXCESSIVELY.
   ELEMENT FINAL_PART-1.2214 IS DISTORTING EXCESSIVELY.
   ELEMENT FINAL_PART-1.2216 IS DISTORTING EXCESSIVELY.
   ELEMENT FINAL_PART-1.2220 IS DISTORTING EXCESSIVELY.
   ELEMENT FINAL_PART-1.2222 IS DISTORTING EXCESSIVELY.
   ELEMENT FINAL_PART-1.2224 IS DISTORTING EXCESSIVELY.
   ELEMENT FINAL_PART-1.2227 IS DISTORTING EXCESSIVELY.
   ELEMENT FINAL_PART-1.2233 IS DISTORTING EXCESSIVELY.
   ELEMENT FINAL_PART-1.2237 IS DISTORTING EXCESSIVELY.
   ELEMENT FINAL_PART-1.2238 IS DISTORTING EXCESSIVELY.
   ELEMENT FINAL_PART-1.2239 IS DISTORTING EXCESSIVELY.
   ELEMENT FINAL_PART-1.2241 IS DISTORTING EXCESSIVELY.
   ELEMENT FINAL_PART-1.2244 IS DISTORTING EXCESSIVELY.
   ELEMENT FINAL_PART-1.2245 IS DISTORTING EXCESSIVELY.
   ELEMENT FINAL_PART-1.2246 IS DISTORTING EXCESSIVELY.
   ELEMENT FINAL_PART-1.2247 IS DISTORTING EXCESSIVELY.
   ELEMENT FINAL_PART-1.2248 IS DISTORTING EXCESSIVELY.
   ELEMENT FINAL_PART-1.2249 IS DISTORTING EXCESSIVELY.
   ELEMENT FINAL_PART-1.2252 IS DISTORTING EXCESSIVELY.
   ELEMENT FINAL_PART-1.2253 IS DISTORTING EXCESSIVELY.
   ELEMENT FINAL_PART-1.2256 IS DISTORTING EXCESSIVELY.
   ELEMENT FINAL_PART-1.2258 IS DISTORTING EXCESSIVELY.
   ELEMENT FINAL_PART-1.2262 IS DISTORTING EXCESSIVELY.
   ELEMENT FINAL_PART-1.2263 IS DISTORTING EXCESSIVELY.
   ELEMENT FINAL_PART-1.2265 IS DISTORTING EXCESSIVELY.
   ELEMENT FINAL_PART-1.2267 IS DISTORTING EXCESSIVELY.
   ELEMENT FINAL_PART-1.2268 IS DISTORTING EXCESSIVELY.
   ELEMENT FINAL_PART-1.2270 IS DISTORTING EXCESSIVELY.
   ELEMENT FINAL_PART-1.2271 IS DISTORTING EXCESSIVELY.
   ELEMENT FINAL_PART-1.2273 IS DISTORTING EXCESSIVELY.
   ELEMENT FINAL_PART-1.2275 IS DISTORTING EXCESSIVELY.
   ELEMENT FINAL_PART-1.2276 IS DISTORTING EXCESSIVELY.
   ELEMENT FINAL_PART-1.2278 IS DISTORTING EXCESSIVELY.
   ELEMENT FINAL_PART-1.2283 IS DISTORTING EXCESSIVELY.
   ELEMENT FINAL_PART-1.2284 IS DISTORTING EXCESSIVELY.
   ELEMENT FINAL_PART-1.2286 IS DISTORTING EXCESSIVELY.
   ELEMENT FINAL_PART-1.2287 IS DISTORTING EXCESSIVELY.
   ELEMENT FINAL_PART-1.2292 IS DISTORTING EXCESSIVELY.
   ELEMENT FINAL_PART-1.2295 IS DISTORTING EXCESSIVELY.
   ELEMENT FINAL_PART-1.2297 IS DISTORTING EXCESSIVELY.
   ELEMENT FINAL_PART-1.2301 IS DISTORTING EXCESSIVELY.
   ELEMENT FINAL_PART-1.2302 IS DISTORTING EXCESSIVELY.
   ELEMENT FINAL_PART-1.2303 IS DISTORTING EXCESSIVELY.
   ELEMENT FINAL_PART-1.2308 IS DISTORTING EXCESSIVELY.
   ELEMENT FINAL_PART-1.2309 IS DISTORTING EXCESSIVELY.
   ELEMENT FINAL_PART-1.2310 IS DISTORTING EXCESSIVELY.
   ELEMENT FINAL_PART-1.2311 IS DISTORTING EXCESSIVELY.
   ELEMENT FINAL_PART-1.2312 IS DISTORTING EXCESSIVELY.
   ELEMENT FINAL_PART-1.2313 IS DISTORTING EXCESSIVELY.
   ELEMENT FINAL_PART-1.2315 IS DISTORTING EXCESSIVELY.
   ELEMENT FINAL_PART-1.2317 IS DISTORTING EXCESSIVELY.
   ELEMENT FINAL_PART-1.2318 IS DISTORTING EXCESSIVELY.
   ELEMENT FINAL_PART-1.2319 IS DISTORTING EXCESSIVELY.
   ELEMENT FINAL_PART-1.2321 IS DISTORTING EXCESSIVELY.
   ELEMENT FINAL_PART-1.2322 IS DISTORTING EXCESSIVELY.
   ELEMENT FINAL_PART-1.2325 IS DISTORTING EXCESSIVELY.
   ELEMENT FINAL_PART-1.2327 IS DISTORTING EXCESSIVELY.
   ELEMENT FINAL_PART-1.2331 IS DISTORTING EXCESSIVELY.
   ELEMENT FINAL_PART-1.2332 IS DISTORTING EXCESSIVELY.
   ELEMENT FINAL_PART-1.2334 IS DISTORTING EXCESSIVELY.
   ELEMENT FINAL_PART-1.2336 IS DISTORTING EXCESSIVELY.
   ELEMENT FINAL_PART-1.2338 IS DISTORTING EXCESSIVELY.
   ELEMENT FINAL_PART-1.2340 IS DISTORTING EXCESSIVELY.
   ELEMENT FINAL_PART-1.2344 IS DISTORTING EXCESSIVELY.
   ELEMENT FINAL_PART-1.2347 IS DISTORTING EXCESSIVELY.
   ELEMENT FINAL_PART-1.2348 IS DISTORTING EXCESSIVELY.
   ELEMENT FINAL_PART-1.2349 IS DISTORTING EXCESSIVELY.
   ELEMENT FINAL_PART-1.2350 IS DISTORTING EXCESSIVELY.
   ELEMENT FINAL_PART-1.2357 IS DISTORTING EXCESSIVELY.
   ELEMENT FINAL_PART-1.2358 IS DISTORTING EXCESSIVELY.
   ELEMENT FINAL_PART-1.2359 IS DISTORTING EXCESSIVELY.
   ELEMENT FINAL_PART-1.2360 IS DISTORTING EXCESSIVELY.
   ELEMENT FINAL_PART-1.2361 IS DISTORTING EXCESSIVELY.
   ELEMENT FINAL_PART-1.2364 IS DISTORTING EXCESSIVELY.
   ELEMENT FINAL_PART-1.2365 IS DISTORTING EXCESSIVELY.
   ELEMENT FINAL_PART-1.2366 IS DISTORTING EXCESSIVELY.
   ELEMENT FINAL_PART-1.2367 IS DISTORTING EXCESSIVELY.
   ELEMENT FINAL_PART-1.2370 IS DISTORTING EXCESSIVELY.
   ELEMENT FINAL_PART-1.2372 IS DISTORTING EXCESSIVELY.
   ELEMENT FINAL_PART-1.2373 IS DISTORTING EXCESSIVELY.
   ELEMENT FINAL_PART-1.2376 IS DISTORTING EXCESSIVELY.
   ELEMENT FINAL_PART-1.2379 IS DISTORTING EXCESSIVELY.
   ELEMENT FINAL_PART-1.2381 IS DISTORTING EXCESSIVELY.
   ELEMENT FINAL_PART-1.2382 IS DISTORTING EXCESSIVELY.
   ELEMENT FINAL_PART-1.2384 IS DISTORTING EXCESSIVELY.
   ELEMENT FINAL_PART-1.2385 IS DISTORTING EXCESSIVELY.
   ELEMENT FINAL_PART-1.2386 IS DISTORTING EXCESSIVELY.
   ELEMENT FINAL_PART-1.2388 IS DISTORTING EXCESSIVELY.
   ELEMENT FINAL_PART-1.2390 IS DISTORTING EXCESSIVELY.
   ELEMENT FINAL_PART-1.2392 IS DISTORTING EXCESSIVELY.
   ELEMENT FINAL_PART-1.2394 IS DISTORTING EXCESSIVELY.
   ELEMENT FINAL_PART-1.2397 IS DISTORTING EXCESSIVELY.
   ELEMENT FINAL_PART-1.2400 IS DISTORTING EXCESSIVELY.
   ELEMENT FINAL_PART-1.2401 IS DISTORTING EXCESSIVELY.
   ELEMENT FINAL_PART-1.2402 IS DISTORTING EXCESSIVELY.
   ELEMENT FINAL_PART-1.2403 IS DISTORTING EXCESSIVELY.
   ELEMENT FINAL_PART-1.2404 IS DISTORTING EXCESSIVELY.
   ELEMENT FINAL_PART-1.2405 IS DISTORTING EXCESSIVELY.
   ELEMENT FINAL_PART-1.2406 IS DISTORTING EXCESSIVELY.
   ELEMENT FINAL_PART-1.2407 IS DISTORTING EXCESSIVELY.
   ELEMENT FINAL_PART-1.2408 IS DISTORTING EXCESSIVELY.
   ELEMENT FINAL_PART-1.2409 IS DISTORTING EXCESSIVELY.
   ELEMENT FINAL_PART-1.2410 IS DISTORTING EXCESSIVELY.
   ELEMENT FINAL_PART-1.2412 IS DISTORTING EXCESSIVELY.
   ELEMENT FINAL_PART-1.2413 IS DISTORTING EXCESSIVELY.
   ELEMENT FINAL_PART-1.2414 IS DISTORTING EXCESSIVELY.
   ELEMENT FINAL_PART-1.2417 IS DISTORTING EXCESSIVELY.
   ELEMENT FINAL_PART-1.2419 IS DISTORTING EXCESSIVELY.
   ELEMENT FINAL_PART-1.2421 IS DISTORTING EXCESSIVELY.
   ELEMENT FINAL_PART-1.2426 IS DISTORTING EXCESSIVELY.
   ELEMENT FINAL_PART-1.2429 IS DISTORTING EXCESSIVELY.
   ELEMENT FINAL_PART-1.2430 IS DISTORTING EXCESSIVELY.
   ELEMENT FINAL_PART-1.2431 IS DISTORTING EXCESSIVELY.
   ELEMENT FINAL_PART-1.2433 IS DISTORTING EXCESSIVELY.
   ELEMENT FINAL_PART-1.2435 IS DISTORTING EXCESSIVELY.
   ELEMENT FINAL_PART-1.2438 IS DISTORTING EXCESSIVELY.
   ELEMENT FINAL_PART-1.2439 IS DISTORTING EXCESSIVELY.
   ELEMENT FINAL_PART-1.2440 IS DISTORTING EXCESSIVELY.
   ELEMENT FINAL_PART-1.2442 IS DISTORTING EXCESSIVELY.
   ELEMENT FINAL_PART-1.2443 IS DISTORTING EXCESSIVELY.
   ELEMENT FINAL_PART-1.2445 IS DISTORTING EXCESSIVELY.
   ELEMENT FINAL_PART-1.2446 IS DISTORTING EXCESSIVELY.
   ELEMENT FINAL_PART-1.2448 IS DISTORTING EXCESSIVELY.
   ELEMENT FINAL_PART-1.2449 IS DISTORTING EXCESSIVELY.
   ELEMENT FINAL_PART-1.2456 IS DISTORTING EXCESSIVELY.
   ELEMENT FINAL_PART-1.2457 IS DISTORTING EXCESSIVELY.
   ELEMENT FINAL_PART-1.2458 IS DISTORTING EXCESSIVELY.
   ELEMENT FINAL_PART-1.2459 IS DISTORTING EXCESSIVELY.
   ELEMENT FINAL_PART-1.2460 IS DISTORTING EXCESSIVELY.
   ELEMENT FINAL_PART-1.2464 IS DISTORTING EXCESSIVELY.
   ELEMENT FINAL_PART-1.2465 IS DISTORTING EXCESSIVELY.
   ELEMENT FINAL_PART-1.2466 IS DISTORTING EXCESSIVELY.
   ELEMENT FINAL_PART-1.2467 IS DISTORTING EXCESSIVELY.
   ELEMENT FINAL_PART-1.2468 IS DISTORTING EXCESSIVELY.
   ELEMENT FINAL_PART-1.2470 IS DISTORTING EXCESSIVELY.
   ELEMENT FINAL_PART-1.2471 IS DISTORTING EXCESSIVELY.
   ELEMENT FINAL_PART-1.2472 IS DISTORTING EXCESSIVELY.
   ELEMENT FINAL_PART-1.2476 IS DISTORTING EXCESSIVELY.
   ELEMENT FINAL_PART-1.2478 IS DISTORTING EXCESSIVELY.
   ELEMENT FINAL_PART-1.2480 IS DISTORTING EXCESSIVELY.
   ELEMENT FINAL_PART-1.2481 IS DISTORTING EXCESSIVELY.
   ELEMENT FINAL_PART-1.2485 IS DISTORTING EXCESSIVELY.
   ELEMENT FINAL_PART-1.2488 IS DISTORTING EXCESSIVELY.
   ELEMENT FINAL_PART-1.2489 IS DISTORTING EXCESSIVELY.
   ELEMENT FINAL_PART-1.2490 IS DISTORTING EXCESSIVELY.
   ELEMENT FINAL_PART-1.2492 IS DISTORTING EXCESSIVELY.
   ELEMENT FINAL_PART-1.2494 IS DISTORTING EXCESSIVELY.
   ELEMENT FINAL_PART-1.2497 IS DISTORTING EXCESSIVELY.
   ELEMENT FINAL_PART-1.2498 IS DISTORTING EXCESSIVELY.
   ELEMENT FINAL_PART-1.2499 IS DISTORTING EXCESSIVELY.
   ELEMENT FINAL_PART-1.2502 IS DISTORTING EXCESSIVELY.
   ELEMENT FINAL_PART-1.2503 IS DISTORTING EXCESSIVELY.
   ELEMENT FINAL_PART-1.2505 IS DISTORTING EXCESSIVELY.
   ELEMENT FINAL_PART-1.2506 IS DISTORTING EXCESSIVELY.
   ELEMENT FINAL_PART-1.2507 IS DISTORTING EXCESSIVELY.
   ELEMENT FINAL_PART-1.2508 IS DISTORTING EXCESSIVELY.
   ELEMENT FINAL_PART-1.2509 IS DISTORTING EXCESSIVELY.
   ELEMENT FINAL_PART-1.2510 IS DISTORTING EXCESSIVELY.
   ELEMENT FINAL_PART-1.2512 IS DISTORTING EXCESSIVELY.
   ELEMENT FINAL_PART-1.2513 IS DISTORTING EXCESSIVELY.
   ELEMENT FINAL_PART-1.2514 IS DISTORTING EXCESSIVELY.
   ELEMENT FINAL_PART-1.2515 IS DISTORTING EXCESSIVELY.
   ELEMENT FINAL_PART-1.2516 IS DISTORTING EXCESSIVELY.
   ELEMENT FINAL_PART-1.2520 IS DISTORTING EXCESSIVELY.
   ELEMENT FINAL_PART-1.2522 IS DISTORTING EXCESSIVELY.
   ELEMENT FINAL_PART-1.2526 IS DISTORTING EXCESSIVELY.
   ELEMENT FINAL_PART-1.2527 IS DISTORTING EXCESSIVELY.
   ELEMENT FINAL_PART-1.2529 IS DISTORTING EXCESSIVELY.
   ELEMENT FINAL_PART-1.2530 IS DISTORTING EXCESSIVELY.
   ELEMENT FINAL_PART-1.2531 IS DISTORTING EXCESSIVELY.
   ELEMENT FINAL_PART-1.2533 IS DISTORTING EXCESSIVELY.
   ELEMENT FINAL_PART-1.2535 IS DISTORTING EXCESSIVELY.
   ELEMENT FINAL_PART-1.2536 IS DISTORTING EXCESSIVELY.
   ELEMENT FINAL_PART-1.2538 IS DISTORTING EXCESSIVELY.
   ELEMENT FINAL_PART-1.2539 IS DISTORTING EXCESSIVELY.
   ELEMENT FINAL_PART-1.2541 IS DISTORTING EXCESSIVELY.
   ELEMENT FINAL_PART-1.2542 IS DISTORTING EXCESSIVELY.
   ELEMENT FINAL_PART-1.2544 IS DISTORTING EXCESSIVELY.
   ELEMENT FINAL_PART-1.2545 IS DISTORTING EXCESSIVELY.
   ELEMENT FINAL_PART-1.2553 IS DISTORTING EXCESSIVELY.
   ELEMENT FINAL_PART-1.2555 IS DISTORTING EXCESSIVELY.
   ELEMENT FINAL_PART-1.2557 IS DISTORTING EXCESSIVELY.
   ELEMENT FINAL_PART-1.2561 IS DISTORTING EXCESSIVELY.
   ELEMENT FINAL_PART-1.2563 IS DISTORTING EXCESSIVELY.
   ELEMENT FINAL_PART-1.2564 IS DISTORTING EXCESSIVELY.
   ELEMENT FINAL_PART-1.2566 IS DISTORTING EXCESSIVELY.
   ELEMENT FINAL_PART-1.2568 IS DISTORTING EXCESSIVELY.
   ELEMENT FINAL_PART-1.2569 IS DISTORTING EXCESSIVELY.
   ELEMENT FINAL_PART-1.2570 IS DISTORTING EXCESSIVELY.
   ELEMENT FINAL_PART-1.2572 IS DISTORTING EXCESSIVELY.
   ELEMENT FINAL_PART-1.2573 IS DISTORTING EXCESSIVELY.
   ELEMENT FINAL_PART-1.2574 IS DISTORTING EXCESSIVELY.
   ELEMENT FINAL_PART-1.2576 IS DISTORTING EXCESSIVELY.
   ELEMENT FINAL_PART-1.2583 IS DISTORTING EXCESSIVELY.
   ELEMENT FINAL_PART-1.2586 IS DISTORTING EXCESSIVELY.
   ELEMENT FINAL_PART-1.2587 IS DISTORTING EXCESSIVELY.
   ELEMENT FINAL_PART-1.2588 IS DISTORTING EXCESSIVELY.
   ELEMENT FINAL_PART-1.2592 IS DISTORTING EXCESSIVELY.
   ELEMENT FINAL_PART-1.2593 IS DISTORTING EXCESSIVELY.
   ELEMENT FINAL_PART-1.2594 IS DISTORTING EXCESSIVELY.
   ELEMENT FINAL_PART-1.2598 IS DISTORTING EXCESSIVELY.
   ELEMENT FINAL_PART-1.2600 IS DISTORTING EXCESSIVELY.
   ELEMENT FINAL_PART-1.2601 IS DISTORTING EXCESSIVELY.
   ELEMENT FINAL_PART-1.2602 IS DISTORTING EXCESSIVELY.
   ELEMENT FINAL_PART-1.2605 IS DISTORTING EXCESSIVELY.
   ELEMENT FINAL_PART-1.2606 IS DISTORTING EXCESSIVELY.
   ELEMENT FINAL_PART-1.2608 IS DISTORTING EXCESSIVELY.
   ELEMENT FINAL_PART-1.2611 IS DISTORTING EXCESSIVELY.
   ELEMENT FINAL_PART-1.2612 IS DISTORTING EXCESSIVELY.
   ELEMENT FINAL_PART-1.2614 IS DISTORTING EXCESSIVELY.
   ELEMENT FINAL_PART-1.2616 IS DISTORTING EXCESSIVELY.
   ELEMENT FINAL_PART-1.2617 IS DISTORTING EXCESSIVELY.
   ELEMENT FINAL_PART-1.2618 IS DISTORTING EXCESSIVELY.
   ELEMENT FINAL_PART-1.2619 IS DISTORTING EXCESSIVELY.
   ELEMENT FINAL_PART-1.2620 IS DISTORTING EXCESSIVELY.
   ELEMENT FINAL_PART-1.2622 IS DISTORTING EXCESSIVELY.
   ELEMENT FINAL_PART-1.2623 IS DISTORTING EXCESSIVELY.
   ELEMENT FINAL_PART-1.2628 IS DISTORTING EXCESSIVELY.
   ELEMENT FINAL_PART-1.2635 IS DISTORTING EXCESSIVELY.
   ELEMENT FINAL_PART-1.2636 IS DISTORTING EXCESSIVELY.
   ELEMENT FINAL_PART-1.2637 IS DISTORTING EXCESSIVELY.
   ELEMENT FINAL_PART-1.2638 IS DISTORTING EXCESSIVELY.
   ELEMENT FINAL_PART-1.2640 IS DISTORTING EXCESSIVELY.
   ELEMENT FINAL_PART-1.2641 IS DISTORTING EXCESSIVELY.
   ELEMENT FINAL_PART-1.2642 IS DISTORTING EXCESSIVELY.
   ELEMENT FINAL_PART-1.2643 IS DISTORTING EXCESSIVELY.
   ELEMENT FINAL_PART-1.2648 IS DISTORTING EXCESSIVELY.
   ELEMENT FINAL_PART-1.2649 IS DISTORTING EXCESSIVELY.
   ELEMENT FINAL_PART-1.2650 IS DISTORTING EXCESSIVELY.
   ELEMENT FINAL_PART-1.2651 IS DISTORTING EXCESSIVELY.
   ELEMENT FINAL_PART-1.2652 IS DISTORTING EXCESSIVELY.
   ELEMENT FINAL_PART-1.2653 IS DISTORTING EXCESSIVELY.
   ELEMENT FINAL_PART-1.2655 IS DISTORTING EXCESSIVELY.
   ELEMENT FINAL_PART-1.2656 IS DISTORTING EXCESSIVELY.
   ELEMENT FINAL_PART-1.2659 IS DISTORTING EXCESSIVELY.
[...]
  CORRESPONDING RESIDUAL FORCE     -1.408E-04
 LARGEST INCREMENT OF DISP.        -2.246E-03   AT NODE        216   DOF  1
   INSTANCE: FINAL_PART-1                                                                    
 LARGEST CORRECTION TO DISP.       -3.146E-06   AT NODE        216   DOF  1
   INSTANCE: FINAL_PART-1                                                                    
          THE FORCE     EQUILIBRIUM EQUATIONS HAVE CONVERGED

 ITERATION SUMMARY FOR THE INCREMENT:   6 TOTAL ITERATIONS, OF WHICH
   0 ARE SEVERE DISCONTINUITY ITERATIONS AND  6 ARE EQUILIBRIUM ITERATIONS.

 TIME INCREMENT COMPLETED  8.789E-03,  FRACTION OF STEP COMPLETED  0.978    
 STEP TIME COMPLETED       0.978    ,  TOTAL TIME COMPLETED        0.978    


  INCREMENT    39 STARTS. ATTEMPT NUMBER  1, TIME INCREMENT  8.789E-03
 
	SYMMETRIC PURE THREAD-BASED DIRECT SPARSE SOLVER RUNNING ON
 	1 HOST x 1 MPI RANK PER HOST x 1 THREAD PER RANK
        NUMBER OF EQUATIONS:  494706
        NUMBER OF RHS:        1
        NUMBER OF FLOPS:      1.131e+11
        SOLVER ELAPSED TIME:  6.6s

               CONVERGENCE CHECKS FOR EQUILIBRIUM ITERATION     1


 AVERAGE FORCE                      0.183       TIME AVG. FORCE       0.130    
 LARGEST SCALED RESIDUAL FORCE      0.516       AT NODE        849   DOF  1
   INSTANCE: FINAL_PART-1                                                                    
  CORRESPONDING RESIDUAL FORCE      0.516    
 LARGEST INCREMENT OF DISP.        -2.103E-03   AT NODE        216   DOF  1
   INSTANCE: FINAL_PART-1                                                                    
 LARGEST CORRECTION TO DISP.        2.064E-04   AT NODE        235   DOF  1
   INSTANCE: FINAL_PART-1                                                                    
          FORCE     EQUILIBRIUM NOT ACHIEVED WITHIN TOLERANCE.
 
	SYMMETRIC PURE THREAD-BASED DIRECT SPARSE SOLVER RUNNING ON
 	1 HOST x 1 MPI RANK PER HOST x 1 THREAD PER RANK
        NUMBER OF EQUATIONS:  494706
        NUMBER OF RHS:        1
        NUMBER OF FLOPS:      1.131e+11
        SOLVER ELAPSED TIME:  6.6s
 

 ***WARNING: THE SYSTEM MATRIX HAS 1 NEGATIVE EIGENVALUES.
             EXPLANATIONS ARE SUGGESTED AFTER THE FIRST OCCURRENCE OF THIS MESSAGE.

               CONVERGENCE CHECKS FOR EQUILIBRIUM ITERATION     2


 AVERAGE FORCE                      0.183       TIME AVG. FORCE       0.130    
 LARGEST SCALED RESIDUAL FORCE     -4.793E-02   AT NODE         14   DOF  2
   INSTANCE: FINAL_PART-1                                                                    
  CORRESPONDING RESIDUAL FORCE     -4.793E-02
 LARGEST INCREMENT OF DISP.        -2.144E-03   AT NODE        216   DOF  1
   INSTANCE: FINAL_PART-1                                                                    
 LARGEST CORRECTION TO DISP.       -4.652E-05   AT NODE         44   DOF  1
   INSTANCE: FINAL_PART-1                                                                    
          FORCE     EQUILIBRIUM NOT ACHIEVED WITHIN TOLERANCE.
 
	SYMMETRIC PURE THREAD-BASED DIRECT SPARSE SOLVER RUNNING ON
 	1 HOST x 1 MPI RANK PER HOST x 1 THREAD PER RANK
        NUMBER OF EQUATIONS:  494706
        NUMBER OF RHS:        1
        NUMBER OF FLOPS:      1.131e+11
        SOLVER ELAPSED TIME:  6.6s

               CONVERGENCE CHECKS FOR EQUILIBRIUM ITERATION     3


 AVERAGE FORCE                      0.183       TIME AVG. FORCE       0.130    
 LARGEST SCALED RESIDUAL FORCE     -3.183E-02   AT NODE        847   DOF  1
   INSTANCE: FINAL_PART-1                                                                    
  CORRESPONDING RESIDUAL FORCE     -3.183E-02
 LARGEST INCREMENT OF DISP.        -2.160E-03   AT NODE        216   DOF  1
   INSTANCE: FINAL_PART-1                                                                    
 LARGEST CORRECTION TO DISP.        2.600E-05   AT NODE        229   DOF  2
   INSTANCE: FINAL_PART-1                                                                    
          FORCE     EQUILIBRIUM NOT ACHIEVED WITHIN TOLERANCE.
 
	SYMMETRIC PURE THREAD-BASED DIRECT SPARSE SOLVER RUNNING ON
 	1 HOST x 1 MPI RANK PER HOST x 1 THREAD PER RANK
        NUMBER OF EQUATIONS:  494706
        NUMBER OF RHS:        1
        NUMBER OF FLOPS:      1.131e+11
        SOLVER ELAPSED TIME:  6.6s

               CONVERGENCE CHECKS FOR EQUILIBRIUM ITERATION     4


 AVERAGE FORCE                      0.183       TIME AVG. FORCE       0.130    
 LARGEST SCALED RESIDUAL FORCE     -1.550E-03   AT NODE        863   DOF  1
   INSTANCE: FINAL_PART-1                                                                    
  CORRESPONDING RESIDUAL FORCE     -1.550E-03
 LARGEST INCREMENT OF DISP.        -2.172E-03   AT NODE        216   DOF  1
   INSTANCE: FINAL_PART-1                                                                    
 LARGEST CORRECTION TO DISP.       -1.159E-05   AT NODE        216   DOF  1
   INSTANCE: FINAL_PART-1                                                                    
          FORCE     EQUILIBRIUM NOT ACHIEVED WITHIN TOLERANCE.
 
	SYMMETRIC PURE THREAD-BASED DIRECT SPARSE SOLVER RUNNING ON
 	1 HOST x 1 MPI RANK PER HOST x 1 THREAD PER RANK
        NUMBER OF EQUATIONS:  494706
        NUMBER OF RHS:        1
        NUMBER OF FLOPS:      1.131e+11
        SOLVER ELAPSED TIME:  6.6s

               CONVERGENCE CHECKS FOR EQUILIBRIUM ITERATION     5


 AVERAGE FORCE                      0.183       TIME AVG. FORCE       0.130    
 LARGEST SCALED RESIDUAL FORCE     -8.023E-03   AT NODE        847   DOF  1
   INSTANCE: FINAL_PART-1                                                                    
  CORRESPONDING RESIDUAL FORCE     -8.023E-03
 LARGEST INCREMENT OF DISP.        -2.195E-03   AT NODE        216   DOF  1
   INSTANCE: FINAL_PART-1                                                                    
 LARGEST CORRECTION TO DISP.       -2.296E-05   AT NODE        216   DOF  1
   INSTANCE: FINAL_PART-1                                                                    
          FORCE     EQUILIBRIUM NOT ACHIEVED WITHIN TOLERANCE.
 
	SYMMETRIC PURE THREAD-BASED DIRECT SPARSE SOLVER RUNNING ON
 	1 HOST x 1 MPI RANK PER HOST x 1 THREAD PER RANK
        NUMBER OF EQUATIONS:  494706
        NUMBER OF RHS:        1
        NUMBER OF FLOPS:      1.131e+11
        SOLVER ELAPSED TIME:  6.5s

               CONVERGENCE CHECKS FOR EQUILIBRIUM ITERATION     6


 AVERAGE FORCE                      0.183       TIME AVG. FORCE       0.130    
 LARGEST SCALED RESIDUAL FORCE      1.281E-04   AT NODE         12   DOF  2
   INSTANCE: FINAL_PART-1                                                                    
  CORRESPONDING RESIDUAL FORCE      1.281E-04
 LARGEST INCREMENT OF DISP.        -2.198E-03   AT NODE        216   DOF  1
   INSTANCE: FINAL_PART-1                                                                    
 LARGEST CORRECTION TO DISP.       -2.997E-06   AT NODE        216   DOF  1
   INSTANCE: FINAL_PART-1                                                                    
          THE FORCE     EQUILIBRIUM EQUATIONS HAVE CONVERGED

 ITERATION SUMMARY FOR THE INCREMENT:   6 TOTAL ITERATIONS, OF WHICH
   0 ARE SEVERE DISCONTINUITY ITERATIONS AND  6 ARE EQUILIBRIUM ITERATIONS.

 TIME INCREMENT COMPLETED  8.789E-03,  FRACTION OF STEP COMPLETED  0.986    
 STEP TIME COMPLETED       0.986    ,  TOTAL TIME COMPLETED        0.986    


  INCREMENT    40 STARTS. ATTEMPT NUMBER  1, TIME INCREMENT  8.789E-03
 
	SYMMETRIC PURE THREAD-BASED DIRECT SPARSE SOLVER RUNNING ON
 	1 HOST x 1 MPI RANK PER HOST x 1 THREAD PER RANK
        NUMBER OF EQUATIONS:  494706
        NUMBER OF RHS:        1
        NUMBER OF FLOPS:      1.131e+11
        SOLVER ELAPSED TIME:  6.4s

               CONVERGENCE CHECKS FOR EQUILIBRIUM ITERATION     1


 AVERAGE FORCE                      0.185       TIME AVG. FORCE       0.132    
 LARGEST SCALED RESIDUAL FORCE      0.467       AT NODE        849   DOF  1
   INSTANCE: FINAL_PART-1                                                                    
  CORRESPONDING RESIDUAL FORCE      0.467    
 LARGEST INCREMENT OF DISP.        -2.052E-03   AT NODE        216   DOF  1
   INSTANCE: FINAL_PART-1                                                                    
 LARGEST CORRECTION TO DISP.        1.975E-04   AT NODE        235   DOF  1
   INSTANCE: FINAL_PART-1                                                                    
          FORCE     EQUILIBRIUM NOT ACHIEVED WITHIN TOLERANCE.
 
	SYMMETRIC PURE THREAD-BASED DIRECT SPARSE SOLVER RUNNING ON
 	1 HOST x 1 MPI RANK PER HOST x 1 THREAD PER RANK
        NUMBER OF EQUATIONS:  494706
        NUMBER OF RHS:        1
        NUMBER OF FLOPS:      1.131e+11
        SOLVER ELAPSED TIME:  6.5s
 

 ***WARNING: THE SYSTEM MATRIX HAS 1 NEGATIVE EIGENVALUES.
             EXPLANATIONS ARE SUGGESTED AFTER THE FIRST OCCURRENCE OF THIS MESSAGE.

               CONVERGENCE CHECKS FOR EQUILIBRIUM ITERATION     2


 AVERAGE FORCE                      0.185       TIME AVG. FORCE       0.132    
 LARGEST SCALED RESIDUAL FORCE     -4.320E-02   AT NODE         14   DOF  2
   INSTANCE: FINAL_PART-1                                                                    
  CORRESPONDING RESIDUAL FORCE     -4.320E-02
 LARGEST INCREMENT OF DISP.        -2.090E-03   AT NODE        216   DOF  1
   INSTANCE: FINAL_PART-1                                                                    
 LARGEST CORRECTION TO DISP.       -4.287E-05   AT NODE         44   DOF  1
   INSTANCE: FINAL_PART-1                                                                    
          FORCE     EQUILIBRIUM NOT ACHIEVED WITHIN TOLERANCE.
 
	SYMMETRIC PURE THREAD-BASED DIRECT SPARSE SOLVER RUNNING ON
 	1 HOST x 1 MPI RANK PER HOST x 1 THREAD PER RANK
        NUMBER OF EQUATIONS:  494706
        NUMBER OF RHS:        1
        NUMBER OF FLOPS:      1.131e+11
        SOLVER ELAPSED TIME:  6.4s

               CONVERGENCE CHECKS FOR EQUILIBRIUM ITERATION     3


 AVERAGE FORCE                      0.185       TIME AVG. FORCE       0.132    
 LARGEST SCALED RESIDUAL FORCE     -2.898E-02   AT NODE        847   DOF  1
   INSTANCE: FINAL_PART-1                                                                    
  CORRESPONDING RESIDUAL FORCE     -2.898E-02
 LARGEST INCREMENT OF DISP.        -2.109E-03   AT NODE        216   DOF  1
   INSTANCE: FINAL_PART-1                                                                    
 LARGEST CORRECTION TO DISP.        2.305E-05   AT NODE        229   DOF  2
   INSTANCE: FINAL_PART-1                                                                    
          FORCE     EQUILIBRIUM NOT ACHIEVED WITHIN TOLERANCE.
 
	SYMMETRIC PURE THREAD-BASED DIRECT SPARSE SOLVER RUNNING ON
 	1 HOST x 1 MPI RANK PER HOST x 1 THREAD PER RANK
        NUMBER OF EQUATIONS:  494706
        NUMBER OF RHS:        1
        NUMBER OF FLOPS:      1.131e+11
        SOLVER ELAPSED TIME:  6.4s

               CONVERGENCE CHECKS FOR EQUILIBRIUM ITERATION     4


 AVERAGE FORCE                      0.185       TIME AVG. FORCE       0.132    
 LARGEST SCALED RESIDUAL FORCE     -1.391E-03   AT NODE        863   DOF  1
   INSTANCE: FINAL_PART-1                                                                    
  CORRESPONDING RESIDUAL FORCE     -1.391E-03
 LARGEST INCREMENT OF DISP.        -2.120E-03   AT NODE        216   DOF  1
   INSTANCE: FINAL_PART-1                                                                    
 LARGEST CORRECTION TO DISP.       -1.103E-05   AT NODE        216   DOF  1
   INSTANCE: FINAL_PART-1                                                                    
          FORCE     EQUILIBRIUM NOT ACHIEVED WITHIN TOLERANCE.
 
	SYMMETRIC PURE THREAD-BASED DIRECT SPARSE SOLVER RUNNING ON
 	1 HOST x 1 MPI RANK PER HOST x 1 THREAD PER RANK
        NUMBER OF EQUATIONS:  494706
        NUMBER OF RHS:        1
        NUMBER OF FLOPS:      1.131e+11
        SOLVER ELAPSED TIME:  6.5s

               CONVERGENCE CHECKS FOR EQUILIBRIUM ITERATION     5


 AVERAGE FORCE                      0.185       TIME AVG. FORCE       0.132    
 LARGEST SCALED RESIDUAL FORCE     -7.116E-03   AT NODE        849   DOF  1
   INSTANCE: FINAL_PART-1                                                                    
  CORRESPONDING RESIDUAL FORCE     -7.116E-03
 LARGEST INCREMENT OF DISP.        -2.141E-03   AT NODE        216   DOF  1
   INSTANCE: FINAL_PART-1                                                                    
 LARGEST CORRECTION TO DISP.       -2.150E-05   AT NODE        216   DOF  1
   INSTANCE: FINAL_PART-1                                                                    
          FORCE     EQUILIBRIUM NOT ACHIEVED WITHIN TOLERANCE.
 
	SYMMETRIC PURE THREAD-BASED DIRECT SPARSE SOLVER RUNNING ON
 	1 HOST x 1 MPI RANK PER HOST x 1 THREAD PER RANK
        NUMBER OF EQUATIONS:  494706
        NUMBER OF RHS:        1
        NUMBER OF FLOPS:      1.131e+11
        SOLVER ELAPSED TIME:  6.4s

               CONVERGENCE CHECKS FOR EQUILIBRIUM ITERATION     6


 AVERAGE FORCE                      0.185       TIME AVG. FORCE       0.132    
 LARGEST SCALED RESIDUAL FORCE      1.161E-04   AT NODE         12   DOF  2
   INSTANCE: FINAL_PART-1                                                                    
  CORRESPONDING RESIDUAL FORCE      1.161E-04
 LARGEST INCREMENT OF DISP.        -2.144E-03   AT NODE        216   DOF  1
   INSTANCE: FINAL_PART-1                                                                    
 LARGEST CORRECTION TO DISP.       -2.724E-06   AT NODE        216   DOF  1
   INSTANCE: FINAL_PART-1                                                                    
          THE FORCE     EQUILIBRIUM EQUATIONS HAVE CONVERGED

 ITERATION SUMMARY FOR THE INCREMENT:   6 TOTAL ITERATIONS, OF WHICH
   0 ARE SEVERE DISCONTINUITY ITERATIONS AND  6 ARE EQUILIBRIUM ITERATIONS.

 TIME INCREMENT COMPLETED  8.789E-03,  FRACTION OF STEP COMPLETED  0.995    
 STEP TIME COMPLETED       0.995    ,  TOTAL TIME COMPLETED        0.995    


  INCREMENT    41 STARTS. ATTEMPT NUMBER  1, TIME INCREMENT  4.883E-03
 
	SYMMETRIC PURE THREAD-BASED DIRECT SPARSE SOLVER RUNNING ON
 	1 HOST x 1 MPI RANK PER HOST x 1 THREAD PER RANK
        NUMBER OF EQUATIONS:  494706
        NUMBER OF RHS:        1
        NUMBER OF FLOPS:      1.131e+11
        SOLVER ELAPSED TIME:  6.5s

               CONVERGENCE CHECKS FOR EQUILIBRIUM ITERATION     1


 AVERAGE FORCE                      0.186       TIME AVG. FORCE       0.133    
 LARGEST SCALED RESIDUAL FORCE      5.695E-02   AT NODE        853   DOF  1
   INSTANCE: FINAL_PART-1                                                                    
  CORRESPONDING RESIDUAL FORCE      5.695E-02
 LARGEST INCREMENT OF DISP.        -1.126E-03   AT NODE        216   DOF  1
   INSTANCE: FINAL_PART-1                                                                    
 LARGEST CORRECTION TO DISP.        8.370E-05   AT NODE        235   DOF  1
   INSTANCE: FINAL_PART-1                                                                    
          FORCE     EQUILIBRIUM NOT ACHIEVED WITHIN TOLERANCE.
 
	SYMMETRIC PURE THREAD-BASED DIRECT SPARSE SOLVER RUNNING ON
 	1 HOST x 1 MPI RANK PER HOST x 1 THREAD PER RANK
        NUMBER OF EQUATIONS:  494706
        NUMBER OF RHS:        1
        NUMBER OF FLOPS:      1.131e+11
        SOLVER ELAPSED TIME:  6.5s
 

 ***WARNING: THE SYSTEM MATRIX HAS 1 NEGATIVE EIGENVALUES.
             EXPLANATIONS ARE SUGGESTED AFTER THE FIRST OCCURRENCE OF THIS MESSAGE.

               CONVERGENCE CHECKS FOR EQUILIBRIUM ITERATION     2


 AVERAGE FORCE                      0.186       TIME AVG. FORCE       0.133    
 LARGEST SCALED RESIDUAL FORCE     -9.086E-03   AT NODE         14   DOF  2
   INSTANCE: FINAL_PART-1                                                                    
  CORRESPONDING RESIDUAL FORCE     -9.086E-03
 LARGEST INCREMENT OF DISP.        -1.131E-03   AT NODE        216   DOF  1
   INSTANCE: FINAL_PART-1                                                                    
 LARGEST CORRECTION TO DISP.       -1.040E-05   AT NODE         46   DOF  1
   INSTANCE: FINAL_PART-1                                                                    
          FORCE     EQUILIBRIUM NOT ACHIEVED WITHIN TOLERANCE.
 
	SYMMETRIC PURE THREAD-BASED DIRECT SPARSE SOLVER RUNNING ON
 	1 HOST x 1 MPI RANK PER HOST x 1 THREAD PER RANK
        NUMBER OF EQUATIONS:  494706
        NUMBER OF RHS:        1
        NUMBER OF FLOPS:      1.131e+11
        SOLVER ELAPSED TIME:  6.5s

               CONVERGENCE CHECKS FOR EQUILIBRIUM ITERATION     3


 AVERAGE FORCE                      0.186       TIME AVG. FORCE       0.133    
 LARGEST SCALED RESIDUAL FORCE     -1.939E-02   AT NODE        847   DOF  1
   INSTANCE: FINAL_PART-1                                                                    
  CORRESPONDING RESIDUAL FORCE     -1.939E-02
 LARGEST INCREMENT OF DISP.        -1.166E-03   AT NODE        216   DOF  1
   INSTANCE: FINAL_PART-1                                                                    
 LARGEST CORRECTION TO DISP.       -3.478E-05   AT NODE        216   DOF  1
   INSTANCE: FINAL_PART-1                                                                    
          FORCE     EQUILIBRIUM NOT ACHIEVED WITHIN TOLERANCE.
 
	SYMMETRIC PURE THREAD-BASED DIRECT SPARSE SOLVER RUNNING ON
 	1 HOST x 1 MPI RANK PER HOST x 1 THREAD PER RANK
        NUMBER OF EQUATIONS:  494706
        NUMBER OF RHS:        1
        NUMBER OF FLOPS:      1.131e+11
        SOLVER ELAPSED TIME:  6.4s

               CONVERGENCE CHECKS FOR EQUILIBRIUM ITERATION     4


 AVERAGE FORCE                      0.186       TIME AVG. FORCE       0.133    
 LARGEST SCALED RESIDUAL FORCE      6.026E-05   AT NODE         12   DOF  2
   INSTANCE: FINAL_PART-1                                                                    
  CORRESPONDING RESIDUAL FORCE      6.026E-05
 LARGEST INCREMENT OF DISP.        -1.167E-03   AT NODE        216   DOF  1
   INSTANCE: FINAL_PART-1                                                                    
 LARGEST CORRECTION TO DISP.       -8.628E-07   AT NODE        216   DOF  1
   INSTANCE: FINAL_PART-1                                                                    
          THE FORCE     EQUILIBRIUM EQUATIONS HAVE CONVERGED

 ITERATION SUMMARY FOR THE INCREMENT:   4 TOTAL ITERATIONS, OF WHICH
   0 ARE SEVERE DISCONTINUITY ITERATIONS AND  4 ARE EQUILIBRIUM ITERATIONS.

 TIME INCREMENT COMPLETED  4.883E-03,  FRACTION OF STEP COMPLETED   1.00    
 STEP TIME COMPLETED        1.00    ,  TOTAL TIME COMPLETED         1.00    


          THE ANALYSIS HAS BEEN COMPLETED



     ANALYSIS SUMMARY:
     TOTAL OF         41  INCREMENTS
                       4  CUTBACKS IN AUTOMATIC INCREMENTATION
                     286  ITERATIONS INCLUDING CONTACT ITERATIONS IF PRESENT
                     286  PASSES THROUGH THE EQUATION SOLVER OF WHICH 
                     286  INVOLVE MATRIX DECOMPOSITION, INCLUDING
                       0  DECOMPOSITION(S) OF THE MASS MATRIX
                       1  REORDERING OF EQUATIONS TO MINIMIZE WAVEFRONT
                       0  ADDITIONAL RESIDUAL EVALUATIONS FOR LINE SEARCHES
                       0  ADDITIONAL OPERATOR EVALUATIONS FOR LINE SEARCHES
                       1  WARNING MESSAGES DURING USER INPUT PROCESSING
                      51  WARNING MESSAGES DURING ANALYSIS
                       0  ANALYSIS WARNINGS ARE NUMERICAL PROBLEM MESSAGES
                      46  ANALYSIS WARNINGS ARE NEGATIVE EIGENVALUE MESSAGES
                       0  ERROR MESSAGES



     JOB TIME SUMMARY
       USER TIME (SEC)      =     1.38E+04
       SYSTEM TIME (SEC)    =     1.33E+03
       TOTAL CPU TIME (SEC) =     1.51E+04
       WALLCLOCK TIME (SEC) =         3809
       MEMORY PEAK (GB)     =            0
