1

   Abaqus 2025                                  Date 25-Feb-2026   Time 12:04:24
   For use by UNIVERSITAET STUTTGART under license from Dassault Systemes or its subsidiary.

                                                                                 
                                                                                 
 STEP    1     INCREMENT     1     STEP TIME    0.00    


                        S T E P       1     S T A T I C   A N A L Y S I S


                                                                                          

     AUTOMATIC TIME CONTROL WITH -
          A SUGGESTED INITIAL TIME INCREMENT OF                 1.00    
          AND A TOTAL TIME PERIOD OF                            1.00    
          THE MINIMUM TIME INCREMENT ALLOWED IS                1.000E-05
          THE MAXIMUM TIME INCREMENT ALLOWED IS                 1.00    

     LINEAR EQUATION SOLVER TYPE         DIRECT SPARSE

 CONVERGENCE TOLERANCE PARAMETERS FOR FORCE    
     CRITERION FOR RESIDUAL FORCE     FOR A NONLINEAR PROBLEM          5.000E-03
     CRITERION FOR DISP.    CORRECTION IN A NONLINEAR PROBLEM          1.000E-02
     INITIAL VALUE OF TIME AVERAGE FORCE                               1.000E-02
     AVERAGE FORCE     IS TIME AVERAGE FORCE    
     ALTERNATE CRIT. FOR RESIDUAL FORCE     FOR A NONLINEAR PROBLEM    2.000E-02
     CRITERION FOR ZERO FORCE     RELATIVE TO TIME AVRG. FORCE         1.000E-05
     CRITERION FOR RESIDUAL FORCE     WHEN THERE IS ZERO FLUX          1.000E-05
     CRITERION FOR DISP.    CORRECTION WHEN THERE IS ZERO FLUX         1.000E-03
     CRITERION FOR RESIDUAL FORCE     FOR A LINEAR INCREMENT           1.000E-08
     FIELD CONVERSION RATIO                                             1.00    
     CRITERION FOR ZERO FORCE     REL. TO TIME AVRG. MAX. FORCE        1.000E-05
     CRITERION FOR ZERO DISP.    RELATIVE TO CHARACTERISTIC LENGTH     1.000E-08

     VOLUMETRIC STRAIN COMPATIBILITY TOLERANCE FOR HYBRID SOLIDS       1.000E-05
     AXIAL STRAIN COMPATIBILITY TOLERANCE FOR HYBRID BEAMS             1.000E-05
     TRANS. SHEAR STRAIN COMPATIBILITY TOLERANCE FOR HYBRID BEAMS      1.000E-05
     SOFT CONTACT CONSTRAINT COMPATIBILITY TOLERANCE FOR P>P0          5.000E-03
     SOFT CONTACT CONSTRAINT COMPATIBILITY TOLERANCE FOR P=0.0         0.100    
     CONTACT FORCE ERROR TOLERANCE FOR CONVERT SDI=YES                 1.00    
     DISPLACEMENT COMPATIBILITY TOLERANCE FOR DCOUP ELEMENTS           1.000E-05
     ROTATION COMPATIBILITY TOLERANCE FOR DCOUP ELEMENTS               1.000E-05

 EQUILIBRIUM WILL BE CHECKED FOR SEVERE DISCONTINUITY ITERATIONS

 TIME INCREMENTATION CONTROL PARAMETERS:
     FIRST EQUILIBRIUM ITERATION FOR CONSECUTIVE DIVERGENCE CHECK              4
     EQUILIBRIUM ITERATION AT WHICH LOG. CONVERGENCE RATE CHECK BEGINS         8
     EQUILIBRIUM ITERATION AFTER WHICH ALTERNATE RESIDUAL IS USED              9
     MAXIMUM EQUILIBRIUM ITERATIONS ALLOWED                                   16
     EQUILIBRIUM ITERATION COUNT FOR CUT-BACK IN NEXT INCREMENT               10
     MAXIMUM EQUILIB. ITERS IN TWO INCREMENTS FOR TIME INCREMENT INCREASE      4
     MAXIMUM ITERATIONS FOR SEVERE DISCONTINUITIES                            50
     MAXIMUM ATTEMPTS ALLOWED IN AN INCREMENT                                  5
     MAXIMUM DISCON. ITERS IN TWO INCREMENTS FOR TIME INCREMENT INCREASE      50
     MAXIMUM CONTACT AUGMENTATIONS FOR *SURFACE BEHAVIOR,AUGMENTED LAGRANGE   50
     CUT-BACK FACTOR AFTER DIVERGENCE                                 0.2500    
     CUT-BACK FACTOR FOR TOO SLOW CONVERGENCE                         0.5000    
     CUT-BACK FACTOR AFTER TOO MANY EQUILIBRIUM ITERATIONS            0.7500    
     CUT-BACK FACTOR AFTER TOO MANY SEVERE DISCONTINUITY ITERATIONS   0.2500    
     CUT-BACK FACTOR AFTER PROBLEMS IN ELEMENT ASSEMBLY               0.2500    
     INCREASE FACTOR AFTER TWO INCREMENTS THAT CONVERGE QUICKLY        1.500    
     MAX. TIME INCREMENT INCREASE FACTOR ALLOWED                       1.500    
     MAX. TIME INCREMENT INCREASE FACTOR ALLOWED (DYNAMICS)            1.250    
     MAX. TIME INCREMENT INCREASE FACTOR ALLOWED (DIFFUSION)           2.000    
     MINIMUM TIME INCREMENT RATIO FOR EXTRAPOLATION TO OCCUR          0.1000    
     MAX. RATIO OF TIME INCREMENT TO STABILITY LIMIT                   1.000    
     FRACTION OF STABILITY LIMIT FOR NEW TIME INCREMENT               0.9500    
     TIME INCREMENT INCREASE FACTOR BEFORE A TIME POINT                1.000    
     GLOBAL STABILIZATION CONTROL IS NOT USED

          PRINT OF INCREMENT NUMBER, TIME, ETC., EVERY    1  INCREMENTS

     THE MAXIMUM NUMBER OF INCREMENTS IN THIS STEP IS                     100

          LARGE DISPLACEMENT THEORY WILL BE USED

     LINEAR EXTRAPOLATION WILL BE USED

     CHARACTERISTIC ELEMENT LENGTH     4.346E-04

     DETAILS REGARDING ACTUAL SOLUTION WAVEFRONT REQUESTED

     DETAILED OUTPUT OF DIAGNOSTICS TO DATABASE REQUESTED

     PRINT OF INCREMENT NUMBER, TIME, ETC., TO THE MESSAGE FILE EVERY     1  INCREMENTS

     COLLECTING MODEL CONSTRAINT INFORMATION FOR OVERCONSTRAINT CHECKS

     COLLECTING STEP CONSTRAINT INFORMATION FOR OVERCONSTRAINT CHECKS


  INCREMENT     1 STARTS. ATTEMPT NUMBER  1, TIME INCREMENT   1.00    
 
	SYMMETRIC PURE THREAD-BASED DIRECT SPARSE SOLVER RUNNING ON
 	1 HOST x 1 MPI RANK PER HOST x 1 THREAD PER RANK
        NUMBER OF EQUATIONS:  494706
        NUMBER OF RHS:        1
        NUMBER OF FLOPS:      1.131e+11
        SOLVER ELAPSED TIME:  4.8s

               CONVERGENCE CHECKS FOR EQUILIBRIUM ITERATION     1


 AVERAGE FORCE                       507.       TIME AVG. FORCE        507.    
 LARGEST SCALED RESIDUAL FORCE      2.826E+04   AT NODE       3890   DOF  1
   INSTANCE: FINAL_PART-1                                                                    
  CORRESPONDING RESIDUAL FORCE      2.826E+04
 LARGEST INCREMENT OF DISP.        -0.100       AT NODE      10604   DOF  3
   INSTANCE: FINAL_PART-1                                                                    
 LARGEST CORRECTION TO DISP.       -0.100       AT NODE      10604   DOF  3
   INSTANCE: FINAL_PART-1                                                                    
          FORCE     EQUILIBRIUM NOT ACHIEVED WITHIN TOLERANCE.
 
	SYMMETRIC PURE THREAD-BASED DIRECT SPARSE SOLVER RUNNING ON
 	1 HOST x 1 MPI RANK PER HOST x 1 THREAD PER RANK
        NUMBER OF EQUATIONS:  494706
        NUMBER OF RHS:        1
        NUMBER OF FLOPS:      1.131e+11
        SOLVER ELAPSED TIME:  7.2s
 

 ***WARNING: THE SYSTEM MATRIX HAS 158742 NEGATIVE EIGENVALUES.

     NEGATIVE EIGENVALUES MEAN THAT THE SYSTEM MATRIX IS NOT 
     POSITIVE DEFINITE:
     FOR EXAMPLE, A BIFURCATION (BUCKLING) LOAD MAY HAVE BEEN EXCEEDED.
   ELEMENT FINAL_PART-1.2 IS DISTORTING EXCESSIVELY.
   ELEMENT FINAL_PART-1.4 IS DISTORTING EXCESSIVELY.
   ELEMENT FINAL_PART-1.6 IS DISTORTING EXCESSIVELY.
   ELEMENT FINAL_PART-1.9 IS DISTORTING EXCESSIVELY.
   ELEMENT FINAL_PART-1.10 IS DISTORTING EXCESSIVELY.
   ELEMENT FINAL_PART-1.13 IS DISTORTING EXCESSIVELY.
   ELEMENT FINAL_PART-1.16 IS DISTORTING EXCESSIVELY.
   ELEMENT FINAL_PART-1.17 IS DISTORTING EXCESSIVELY.
   ELEMENT FINAL_PART-1.19 IS DISTORTING EXCESSIVELY.
   ELEMENT FINAL_PART-1.25 IS DISTORTING EXCESSIVELY.
   ELEMENT FINAL_PART-1.26 IS DISTORTING EXCESSIVELY.
   ELEMENT FINAL_PART-1.28 IS DISTORTING EXCESSIVELY.
   ELEMENT FINAL_PART-1.29 IS DISTORTING EXCESSIVELY.
   ELEMENT FINAL_PART-1.32 IS DISTORTING EXCESSIVELY.
   ELEMENT FINAL_PART-1.35 IS DISTORTING EXCESSIVELY.
   ELEMENT FINAL_PART-1.36 IS DISTORTING EXCESSIVELY.
   ELEMENT FINAL_PART-1.38 IS DISTORTING EXCESSIVELY.
   ELEMENT FINAL_PART-1.39 IS DISTORTING EXCESSIVELY.
   ELEMENT FINAL_PART-1.40 IS DISTORTING EXCESSIVELY.
   ELEMENT FINAL_PART-1.43 IS DISTORTING EXCESSIVELY.
   ELEMENT FINAL_PART-1.46 IS DISTORTING EXCESSIVELY.
   ELEMENT FINAL_PART-1.48 IS DISTORTING EXCESSIVELY.
   ELEMENT FINAL_PART-1.50 IS DISTORTING EXCESSIVELY.
   ELEMENT FINAL_PART-1.53 IS DISTORTING EXCESSIVELY.
   ELEMENT FINAL_PART-1.55 IS DISTORTING EXCESSIVELY.
   ELEMENT FINAL_PART-1.57 IS DISTORTING EXCESSIVELY.
   ELEMENT FINAL_PART-1.60 IS DISTORTING EXCESSIVELY.
   ELEMENT FINAL_PART-1.61 IS DISTORTING EXCESSIVELY.
   ELEMENT FINAL_PART-1.62 IS DISTORTING EXCESSIVELY.
   ELEMENT FINAL_PART-1.63 IS DISTORTING EXCESSIVELY.
   ELEMENT FINAL_PART-1.64 IS DISTORTING EXCESSIVELY.
   ELEMENT FINAL_PART-1.67 IS DISTORTING EXCESSIVELY.
   ELEMENT FINAL_PART-1.68 IS DISTORTING EXCESSIVELY.
   ELEMENT FINAL_PART-1.70 IS DISTORTING EXCESSIVELY.
   ELEMENT FINAL_PART-1.71 IS DISTORTING EXCESSIVELY.
   ELEMENT FINAL_PART-1.72 IS DISTORTING EXCESSIVELY.
   ELEMENT FINAL_PART-1.73 IS DISTORTING EXCESSIVELY.
   ELEMENT FINAL_PART-1.75 IS DISTORTING EXCESSIVELY.
   ELEMENT FINAL_PART-1.76 IS DISTORTING EXCESSIVELY.
   ELEMENT FINAL_PART-1.77 IS DISTORTING EXCESSIVELY.
   ELEMENT FINAL_PART-1.78 IS DISTORTING EXCESSIVELY.
   ELEMENT FINAL_PART-1.79 IS DISTORTING EXCESSIVELY.
   ELEMENT FINAL_PART-1.83 IS DISTORTING EXCESSIVELY.
   ELEMENT FINAL_PART-1.84 IS DISTORTING EXCESSIVELY.
   ELEMENT FINAL_PART-1.86 IS DISTORTING EXCESSIVELY.
   ELEMENT FINAL_PART-1.87 IS DISTORTING EXCESSIVELY.
   ELEMENT FINAL_PART-1.90 IS DISTORTING EXCESSIVELY.
   ELEMENT FINAL_PART-1.93 IS DISTORTING EXCESSIVELY.
   ELEMENT FINAL_PART-1.97 IS DISTORTING EXCESSIVELY.
   ELEMENT FINAL_PART-1.98 IS DISTORTING EXCESSIVELY.
   ELEMENT FINAL_PART-1.101 IS DISTORTING EXCESSIVELY.
   ELEMENT FINAL_PART-1.102 IS DISTORTING EXCESSIVELY.
   ELEMENT FINAL_PART-1.103 IS DISTORTING EXCESSIVELY.
   ELEMENT FINAL_PART-1.104 IS DISTORTING EXCESSIVELY.
   ELEMENT FINAL_PART-1.105 IS DISTORTING EXCESSIVELY.
   ELEMENT FINAL_PART-1.107 IS DISTORTING EXCESSIVELY.
   ELEMENT FINAL_PART-1.109 IS DISTORTING EXCESSIVELY.
   ELEMENT FINAL_PART-1.110 IS DISTORTING EXCESSIVELY.
   ELEMENT FINAL_PART-1.112 IS DISTORTING EXCESSIVELY.
   ELEMENT FINAL_PART-1.113 IS DISTORTING EXCESSIVELY.
   ELEMENT FINAL_PART-1.114 IS DISTORTING EXCESSIVELY.
   ELEMENT FINAL_PART-1.116 IS DISTORTING EXCESSIVELY.
   ELEMENT FINAL_PART-1.117 IS DISTORTING EXCESSIVELY.
   ELEMENT FINAL_PART-1.120 IS DISTORTING EXCESSIVELY.
   ELEMENT FINAL_PART-1.121 IS DISTORTING EXCESSIVELY.
   ELEMENT FINAL_PART-1.122 IS DISTORTING EXCESSIVELY.
   ELEMENT FINAL_PART-1.123 IS DISTORTING EXCESSIVELY.
   ELEMENT FINAL_PART-1.124 IS DISTORTING EXCESSIVELY.
   ELEMENT FINAL_PART-1.125 IS DISTORTING EXCESSIVELY.
   ELEMENT FINAL_PART-1.127 IS DISTORTING EXCESSIVELY.
   ELEMENT FINAL_PART-1.131 IS DISTORTING EXCESSIVELY.
   ELEMENT FINAL_PART-1.132 IS DISTORTING EXCESSIVELY.
   ELEMENT FINAL_PART-1.133 IS DISTORTING EXCESSIVELY.
   ELEMENT FINAL_PART-1.135 IS DISTORTING EXCESSIVELY.
   ELEMENT FINAL_PART-1.137 IS DISTORTING EXCESSIVELY.
   ELEMENT FINAL_PART-1.138 IS DISTORTING EXCESSIVELY.
   ELEMENT FINAL_PART-1.140 IS DISTORTING EXCESSIVELY.
   ELEMENT FINAL_PART-1.142 IS DISTORTING EXCESSIVELY.
   ELEMENT FINAL_PART-1.146 IS DISTORTING EXCESSIVELY.
   ELEMENT FINAL_PART-1.147 IS DISTORTING EXCESSIVELY.
   ELEMENT FINAL_PART-1.148 IS DISTORTING EXCESSIVELY.
   ELEMENT FINAL_PART-1.149 IS DISTORTING EXCESSIVELY.
   ELEMENT FINAL_PART-1.150 IS DISTORTING EXCESSIVELY.
   ELEMENT FINAL_PART-1.156 IS DISTORTING EXCESSIVELY.
   ELEMENT FINAL_PART-1.162 IS DISTORTING EXCESSIVELY.
   ELEMENT FINAL_PART-1.163 IS DISTORTING EXCESSIVELY.
   ELEMENT FINAL_PART-1.164 IS DISTORTING EXCESSIVELY.
   ELEMENT FINAL_PART-1.166 IS DISTORTING EXCESSIVELY.
   ELEMENT FINAL_PART-1.170 IS DISTORTING EXCESSIVELY.
   ELEMENT FINAL_PART-1.174 IS DISTORTING EXCESSIVELY.
   ELEMENT FINAL_PART-1.175 IS DISTORTING EXCESSIVELY.
   ELEMENT FINAL_PART-1.176 IS DISTORTING EXCESSIVELY.
   ELEMENT FINAL_PART-1.177 IS DISTORTING EXCESSIVELY.
   ELEMENT FINAL_PART-1.178 IS DISTORTING EXCESSIVELY.
   ELEMENT FINAL_PART-1.182 IS DISTORTING EXCESSIVELY.
   ELEMENT FINAL_PART-1.183 IS DISTORTING EXCESSIVELY.
   ELEMENT FINAL_PART-1.185 IS DISTORTING EXCESSIVELY.
   ELEMENT FINAL_PART-1.190 IS DISTORTING EXCESSIVELY.
   ELEMENT FINAL_PART-1.191 IS DISTORTING EXCESSIVELY.
   ELEMENT FINAL_PART-1.192 IS DISTORTING EXCESSIVELY.
   ELEMENT FINAL_PART-1.195 IS DISTORTING EXCESSIVELY.
   ELEMENT FINAL_PART-1.198 IS DISTORTING EXCESSIVELY.
   ELEMENT FINAL_PART-1.201 IS DISTORTING EXCESSIVELY.
   ELEMENT FINAL_PART-1.202 IS DISTORTING EXCESSIVELY.
   ELEMENT FINAL_PART-1.203 IS DISTORTING EXCESSIVELY.
   ELEMENT FINAL_PART-1.204 IS DISTORTING EXCESSIVELY.
   ELEMENT FINAL_PART-1.206 IS DISTORTING EXCESSIVELY.
   ELEMENT FINAL_PART-1.211 IS DISTORTING EXCESSIVELY.
   ELEMENT FINAL_PART-1.212 IS DISTORTING EXCESSIVELY.
   ELEMENT FINAL_PART-1.215 IS DISTORTING EXCESSIVELY.
   ELEMENT FINAL_PART-1.216 IS DISTORTING EXCESSIVELY.
   ELEMENT FINAL_PART-1.217 IS DISTORTING EXCESSIVELY.
   ELEMENT FINAL_PART-1.218 IS DISTORTING EXCESSIVELY.
   ELEMENT FINAL_PART-1.220 IS DISTORTING EXCESSIVELY.
   ELEMENT FINAL_PART-1.222 IS DISTORTING EXCESSIVELY.
   ELEMENT FINAL_PART-1.224 IS DISTORTING EXCESSIVELY.
   ELEMENT FINAL_PART-1.225 IS DISTORTING EXCESSIVELY.
   ELEMENT FINAL_PART-1.226 IS DISTORTING EXCESSIVELY.
   ELEMENT FINAL_PART-1.229 IS DISTORTING EXCESSIVELY.
   ELEMENT FINAL_PART-1.230 IS DISTORTING EXCESSIVELY.
   ELEMENT FINAL_PART-1.231 IS DISTORTING EXCESSIVELY.
   ELEMENT FINAL_PART-1.233 IS DISTORTING EXCESSIVELY.
   ELEMENT FINAL_PART-1.234 IS DISTORTING EXCESSIVELY.
   ELEMENT FINAL_PART-1.235 IS DISTORTING EXCESSIVELY.
   ELEMENT FINAL_PART-1.236 IS DISTORTING EXCESSIVELY.
   ELEMENT FINAL_PART-1.237 IS DISTORTING EXCESSIVELY.
   ELEMENT FINAL_PART-1.240 IS DISTORTING EXCESSIVELY.
   ELEMENT FINAL_PART-1.243 IS DISTORTING EXCESSIVELY.
   ELEMENT FINAL_PART-1.244 IS DISTORTING EXCESSIVELY.
   ELEMENT FINAL_PART-1.245 IS DISTORTING EXCESSIVELY.
   ELEMENT FINAL_PART-1.246 IS DISTORTING EXCESSIVELY.
   ELEMENT FINAL_PART-1.248 IS DISTORTING EXCESSIVELY.
   ELEMENT FINAL_PART-1.250 IS DISTORTING EXCESSIVELY.
   ELEMENT FINAL_PART-1.252 IS DISTORTING EXCESSIVELY.
   ELEMENT FINAL_PART-1.255 IS DISTORTING EXCESSIVELY.
   ELEMENT FINAL_PART-1.256 IS DISTORTING EXCESSIVELY.
   ELEMENT FINAL_PART-1.258 IS DISTORTING EXCESSIVELY.
   ELEMENT FINAL_PART-1.259 IS DISTORTING EXCESSIVELY.
   ELEMENT FINAL_PART-1.260 IS DISTORTING EXCESSIVELY.
   ELEMENT FINAL_PART-1.261 IS DISTORTING EXCESSIVELY.
   ELEMENT FINAL_PART-1.264 IS DISTORTING EXCESSIVELY.
   ELEMENT FINAL_PART-1.266 IS DISTORTING EXCESSIVELY.
   ELEMENT FINAL_PART-1.268 IS DISTORTING EXCESSIVELY.
   ELEMENT FINAL_PART-1.269 IS DISTORTING EXCESSIVELY.
   ELEMENT FINAL_PART-1.271 IS DISTORTING EXCESSIVELY.
   ELEMENT FINAL_PART-1.273 IS DISTORTING EXCESSIVELY.
   ELEMENT FINAL_PART-1.274 IS DISTORTING EXCESSIVELY.
   ELEMENT FINAL_PART-1.279 IS DISTORTING EXCESSIVELY.
   ELEMENT FINAL_PART-1.284 IS DISTORTING EXCESSIVELY.
   ELEMENT FINAL_PART-1.288 IS DISTORTING EXCESSIVELY.
   ELEMENT FINAL_PART-1.289 IS DISTORTING EXCESSIVELY.
   ELEMENT FINAL_PART-1.290 IS DISTORTING EXCESSIVELY.
   ELEMENT FINAL_PART-1.292 IS DISTORTING EXCESSIVELY.
   ELEMENT FINAL_PART-1.294 IS DISTORTING EXCESSIVELY.
   ELEMENT FINAL_PART-1.295 IS DISTORTING EXCESSIVELY.
   ELEMENT FINAL_PART-1.296 IS DISTORTING EXCESSIVELY.
   ELEMENT FINAL_PART-1.297 IS DISTORTING EXCESSIVELY.
   ELEMENT FINAL_PART-1.299 IS DISTORTING EXCESSIVELY.
   ELEMENT FINAL_PART-1.300 IS DISTORTING EXCESSIVELY.
   ELEMENT FINAL_PART-1.302 IS DISTORTING EXCESSIVELY.
   ELEMENT FINAL_PART-1.304 IS DISTORTING EXCESSIVELY.
   ELEMENT FINAL_PART-1.312 IS DISTORTING EXCESSIVELY.
   ELEMENT FINAL_PART-1.314 IS DISTORTING EXCESSIVELY.
   ELEMENT FINAL_PART-1.315 IS DISTORTING EXCESSIVELY.
   ELEMENT FINAL_PART-1.316 IS DISTORTING EXCESSIVELY.
   ELEMENT FINAL_PART-1.320 IS DISTORTING EXCESSIVELY.
   ELEMENT FINAL_PART-1.324 IS DISTORTING EXCESSIVELY.
   ELEMENT FINAL_PART-1.328 IS DISTORTING EXCESSIVELY.
   ELEMENT FINAL_PART-1.329 IS DISTORTING EXCESSIVELY.
   ELEMENT FINAL_PART-1.331 IS DISTORTING EXCESSIVELY.
   ELEMENT FINAL_PART-1.332 IS DISTORTING EXCESSIVELY.
   ELEMENT FINAL_PART-1.333 IS DISTORTING EXCESSIVELY.
   ELEMENT FINAL_PART-1.334 IS DISTORTING EXCESSIVELY.
   ELEMENT FINAL_PART-1.343 IS DISTORTING EXCESSIVELY.
   ELEMENT FINAL_PART-1.346 IS DISTORTING EXCESSIVELY.
   ELEMENT FINAL_PART-1.348 IS DISTORTING EXCESSIVELY.
   ELEMENT FINAL_PART-1.350 IS DISTORTING EXCESSIVELY.
   ELEMENT FINAL_PART-1.354 IS DISTORTING EXCESSIVELY.
   ELEMENT FINAL_PART-1.355 IS DISTORTING EXCESSIVELY.
   ELEMENT FINAL_PART-1.356 IS DISTORTING EXCESSIVELY.
   ELEMENT FINAL_PART-1.358 IS DISTORTING EXCESSIVELY.
   ELEMENT FINAL_PART-1.360 IS DISTORTING EXCESSIVELY.
   ELEMENT FINAL_PART-1.361 IS DISTORTING EXCESSIVELY.
   ELEMENT FINAL_PART-1.362 IS DISTORTING EXCESSIVELY.
   ELEMENT FINAL_PART-1.363 IS DISTORTING EXCESSIVELY.
   ELEMENT FINAL_PART-1.365 IS DISTORTING EXCESSIVELY.
   ELEMENT FINAL_PART-1.366 IS DISTORTING EXCESSIVELY.
   ELEMENT FINAL_PART-1.367 IS DISTORTING EXCESSIVELY.
   ELEMENT FINAL_PART-1.368 IS DISTORTING EXCESSIVELY.
   ELEMENT FINAL_PART-1.371 IS DISTORTING EXCESSIVELY.
   ELEMENT FINAL_PART-1.373 IS DISTORTING EXCESSIVELY.
   ELEMENT FINAL_PART-1.378 IS DISTORTING EXCESSIVELY.
   ELEMENT FINAL_PART-1.379 IS DISTORTING EXCESSIVELY.
   ELEMENT FINAL_PART-1.380 IS DISTORTING EXCESSIVELY.
   ELEMENT FINAL_PART-1.386 IS DISTORTING EXCESSIVELY.
   ELEMENT FINAL_PART-1.391 IS DISTORTING EXCESSIVELY.
   ELEMENT FINAL_PART-1.393 IS DISTORTING EXCESSIVELY.
   ELEMENT FINAL_PART-1.394 IS DISTORTING EXCESSIVELY.
   ELEMENT FINAL_PART-1.399 IS DISTORTING EXCESSIVELY.
   ELEMENT FINAL_PART-1.403 IS DISTORTING EXCESSIVELY.
   ELEMENT FINAL_PART-1.405 IS DISTORTING EXCESSIVELY.
   ELEMENT FINAL_PART-1.408 IS DISTORTING EXCESSIVELY.
   ELEMENT FINAL_PART-1.410 IS DISTORTING EXCESSIVELY.
   ELEMENT FINAL_PART-1.412 IS DISTORTING EXCESSIVELY.
   ELEMENT FINAL_PART-1.413 IS DISTORTING EXCESSIVELY.
   ELEMENT FINAL_PART-1.414 IS DISTORTING EXCESSIVELY.
   ELEMENT FINAL_PART-1.415 IS DISTORTING EXCESSIVELY.
   ELEMENT FINAL_PART-1.418 IS DISTORTING EXCESSIVELY.
   ELEMENT FINAL_PART-1.420 IS DISTORTING EXCESSIVELY.
   ELEMENT FINAL_PART-1.421 IS DISTORTING EXCESSIVELY.
   ELEMENT FINAL_PART-1.423 IS DISTORTING EXCESSIVELY.
   ELEMENT FINAL_PART-1.425 IS DISTORTING EXCESSIVELY.
   ELEMENT FINAL_PART-1.426 IS DISTORTING EXCESSIVELY.
   ELEMENT FINAL_PART-1.427 IS DISTORTING EXCESSIVELY.
   ELEMENT FINAL_PART-1.429 IS DISTORTING EXCESSIVELY.
   ELEMENT FINAL_PART-1.434 IS DISTORTING EXCESSIVELY.
   ELEMENT FINAL_PART-1.440 IS DISTORTING EXCESSIVELY.
   ELEMENT FINAL_PART-1.441 IS DISTORTING EXCESSIVELY.
   ELEMENT FINAL_PART-1.443 IS DISTORTING EXCESSIVELY.
   ELEMENT FINAL_PART-1.444 IS DISTORTING EXCESSIVELY.
   ELEMENT FINAL_PART-1.445 IS DISTORTING EXCESSIVELY.
   ELEMENT FINAL_PART-1.447 IS DISTORTING EXCESSIVELY.
   ELEMENT FINAL_PART-1.448 IS DISTORTING EXCESSIVELY.
   ELEMENT FINAL_PART-1.450 IS DISTORTING EXCESSIVELY.
   ELEMENT FINAL_PART-1.451 IS DISTORTING EXCESSIVELY.
   ELEMENT FINAL_PART-1.453 IS DISTORTING EXCESSIVELY.
   ELEMENT FINAL_PART-1.456 IS DISTORTING EXCESSIVELY.
   ELEMENT FINAL_PART-1.459 IS DISTORTING EXCESSIVELY.
   ELEMENT FINAL_PART-1.460 IS DISTORTING EXCESSIVELY.
   ELEMENT FINAL_PART-1.462 IS DISTORTING EXCESSIVELY.
   ELEMENT FINAL_PART-1.464 IS DISTORTING EXCESSIVELY.
   ELEMENT FINAL_PART-1.466 IS DISTORTING EXCESSIVELY.
   ELEMENT FINAL_PART-1.468 IS DISTORTING EXCESSIVELY.
   ELEMENT FINAL_PART-1.472 IS DISTORTING EXCESSIVELY.
   ELEMENT FINAL_PART-1.473 IS DISTORTING EXCESSIVELY.
   ELEMENT FINAL_PART-1.480 IS DISTORTING EXCESSIVELY.
   ELEMENT FINAL_PART-1.483 IS DISTORTING EXCESSIVELY.
   ELEMENT FINAL_PART-1.490 IS DISTORTING EXCESSIVELY.
   ELEMENT FINAL_PART-1.491 IS DISTORTING EXCESSIVELY.
   ELEMENT FINAL_PART-1.492 IS DISTORTING EXCESSIVELY.
   ELEMENT FINAL_PART-1.494 IS DISTORTING EXCESSIVELY.
   ELEMENT FINAL_PART-1.499 IS DISTORTING EXCESSIVELY.
   ELEMENT FINAL_PART-1.501 IS DISTORTING EXCESSIVELY.
   ELEMENT FINAL_PART-1.503 IS DISTORTING EXCESSIVELY.
   ELEMENT FINAL_PART-1.504 IS DISTORTING EXCESSIVELY.
   ELEMENT FINAL_PART-1.505 IS DISTORTING EXCESSIVELY.
   ELEMENT FINAL_PART-1.507 IS DISTORTING EXCESSIVELY.
   ELEMENT FINAL_PART-1.508 IS DISTORTING EXCESSIVELY.
   ELEMENT FINAL_PART-1.509 IS DISTORTING EXCESSIVELY.
   ELEMENT FINAL_PART-1.510 IS DISTORTING EXCESSIVELY.
   ELEMENT FINAL_PART-1.511 IS DISTORTING EXCESSIVELY.
   ELEMENT FINAL_PART-1.512 IS DISTORTING EXCESSIVELY.
   ELEMENT FINAL_PART-1.514 IS DISTORTING EXCESSIVELY.
   ELEMENT FINAL_PART-1.519 IS DISTORTING EXCESSIVELY.
   ELEMENT FINAL_PART-1.520 IS DISTORTING EXCESSIVELY.
   ELEMENT FINAL_PART-1.522 IS DISTORTING EXCESSIVELY.
   ELEMENT FINAL_PART-1.525 IS DISTORTING EXCESSIVELY.
   ELEMENT FINAL_PART-1.527 IS DISTORTING EXCESSIVELY.
   ELEMENT FINAL_PART-1.530 IS DISTORTING EXCESSIVELY.
   ELEMENT FINAL_PART-1.531 IS DISTORTING EXCESSIVELY.
   ELEMENT FINAL_PART-1.532 IS DISTORTING EXCESSIVELY.
   ELEMENT FINAL_PART-1.533 IS DISTORTING EXCESSIVELY.
   ELEMENT FINAL_PART-1.534 IS DISTORTING EXCESSIVELY.
   ELEMENT FINAL_PART-1.535 IS DISTORTING EXCESSIVELY.
   ELEMENT FINAL_PART-1.537 IS DISTORTING EXCESSIVELY.
   ELEMENT FINAL_PART-1.538 IS DISTORTING EXCESSIVELY.
   ELEMENT FINAL_PART-1.544 IS DISTORTING EXCESSIVELY.
   ELEMENT FINAL_PART-1.546 IS DISTORTING EXCESSIVELY.
   ELEMENT FINAL_PART-1.548 IS DISTORTING EXCESSIVELY.
   ELEMENT FINAL_PART-1.550 IS DISTORTING EXCESSIVELY.
   ELEMENT FINAL_PART-1.552 IS DISTORTING EXCESSIVELY.
   ELEMENT FINAL_PART-1.555 IS DISTORTING EXCESSIVELY.
   ELEMENT FINAL_PART-1.560 IS DISTORTING EXCESSIVELY.
   ELEMENT FINAL_PART-1.561 IS DISTORTING EXCESSIVELY.
   ELEMENT FINAL_PART-1.565 IS DISTORTING EXCESSIVELY.
   ELEMENT FINAL_PART-1.566 IS DISTORTING EXCESSIVELY.
   ELEMENT FINAL_PART-1.568 IS DISTORTING EXCESSIVELY.
   ELEMENT FINAL_PART-1.572 IS DISTORTING EXCESSIVELY.
   ELEMENT FINAL_PART-1.574 IS DISTORTING EXCESSIVELY.
   ELEMENT FINAL_PART-1.578 IS DISTORTING EXCESSIVELY.
   ELEMENT FINAL_PART-1.579 IS DISTORTING EXCESSIVELY.
   ELEMENT FINAL_PART-1.580 IS DISTORTING EXCESSIVELY.
   ELEMENT FINAL_PART-1.582 IS DISTORTING EXCESSIVELY.
   ELEMENT FINAL_PART-1.584 IS DISTORTING EXCESSIVELY.
   ELEMENT FINAL_PART-1.586 IS DISTORTING EXCESSIVELY.
   ELEMENT FINAL_PART-1.588 IS DISTORTING EXCESSIVELY.
   ELEMENT FINAL_PART-1.589 IS DISTORTING EXCESSIVELY.
   ELEMENT FINAL_PART-1.590 IS DISTORTING EXCESSIVELY.
   ELEMENT FINAL_PART-1.593 IS DISTORTING EXCESSIVELY.
   ELEMENT FINAL_PART-1.604 IS DISTORTING EXCESSIVELY.
   ELEMENT FINAL_PART-1.611 IS DISTORTING EXCESSIVELY.
   ELEMENT FINAL_PART-1.612 IS DISTORTING EXCESSIVELY.
   ELEMENT FINAL_PART-1.613 IS DISTORTING EXCESSIVELY.
   ELEMENT FINAL_PART-1.616 IS DISTORTING EXCESSIVELY.
   ELEMENT FINAL_PART-1.617 IS DISTORTING EXCESSIVELY.
   ELEMENT FINAL_PART-1.619 IS DISTORTING EXCESSIVELY.
   ELEMENT FINAL_PART-1.620 IS DISTORTING EXCESSIVELY.
   ELEMENT FINAL_PART-1.623 IS DISTORTING EXCESSIVELY.
   ELEMENT FINAL_PART-1.624 IS DISTORTING EXCESSIVELY.
   ELEMENT FINAL_PART-1.625 IS DISTORTING EXCESSIVELY.
   ELEMENT FINAL_PART-1.626 IS DISTORTING EXCESSIVELY.
   ELEMENT FINAL_PART-1.627 IS DISTORTING EXCESSIVELY.
   ELEMENT FINAL_PART-1.632 IS DISTORTING EXCESSIVELY.
   ELEMENT FINAL_PART-1.633 IS DISTORTING EXCESSIVELY.
   ELEMENT FINAL_PART-1.635 IS DISTORTING EXCESSIVELY.
   ELEMENT FINAL_PART-1.636 IS DISTORTING EXCESSIVELY.
   ELEMENT FINAL_PART-1.638 IS DISTORTING EXCESSIVELY.
   ELEMENT FINAL_PART-1.640 IS DISTORTING EXCESSIVELY.
   ELEMENT FINAL_PART-1.644 IS DISTORTING EXCESSIVELY.
   ELEMENT FINAL_PART-1.645 IS DISTORTING EXCESSIVELY.
   ELEMENT FINAL_PART-1.649 IS DISTORTING EXCESSIVELY.
   ELEMENT FINAL_PART-1.650 IS DISTORTING EXCESSIVELY.
   ELEMENT FINAL_PART-1.652 IS DISTORTING EXCESSIVELY.
   ELEMENT FINAL_PART-1.654 IS DISTORTING EXCESSIVELY.
   ELEMENT FINAL_PART-1.655 IS DISTORTING EXCESSIVELY.
   ELEMENT FINAL_PART-1.656 IS DISTORTING EXCESSIVELY.
   ELEMENT FINAL_PART-1.658 IS DISTORTING EXCESSIVELY.
   ELEMENT FINAL_PART-1.659 IS DISTORTING EXCESSIVELY.
   ELEMENT FINAL_PART-1.660 IS DISTORTING EXCESSIVELY.
   ELEMENT FINAL_PART-1.665 IS DISTORTING EXCESSIVELY.
   ELEMENT FINAL_PART-1.667 IS DISTORTING EXCESSIVELY.
   ELEMENT FINAL_PART-1.670 IS DISTORTING EXCESSIVELY.
   ELEMENT FINAL_PART-1.673 IS DISTORTING EXCESSIVELY.
   ELEMENT FINAL_PART-1.675 IS DISTORTING EXCESSIVELY.
   ELEMENT FINAL_PART-1.677 IS DISTORTING EXCESSIVELY.
   ELEMENT FINAL_PART-1.678 IS DISTORTING EXCESSIVELY.
   ELEMENT FINAL_PART-1.680 IS DISTORTING EXCESSIVELY.
   ELEMENT FINAL_PART-1.681 IS DISTORTING EXCESSIVELY.
   ELEMENT FINAL_PART-1.683 IS DISTORTING EXCESSIVELY.
   ELEMENT FINAL_PART-1.684 IS DISTORTING EXCESSIVELY.
   ELEMENT FINAL_PART-1.686 IS DISTORTING EXCESSIVELY.
   ELEMENT FINAL_PART-1.688 IS DISTORTING EXCESSIVELY.
   ELEMENT FINAL_PART-1.689 IS DISTORTING EXCESSIVELY.
   ELEMENT FINAL_PART-1.690 IS DISTORTING EXCESSIVELY.
   ELEMENT FINAL_PART-1.691 IS DISTORTING EXCESSIVELY.
   ELEMENT FINAL_PART-1.693 IS DISTORTING EXCESSIVELY.
   ELEMENT FINAL_PART-1.694 IS DISTORTING EXCESSIVELY.
   ELEMENT FINAL_PART-1.695 IS DISTORTING EXCESSIVELY.
   ELEMENT FINAL_PART-1.701 IS DISTORTING EXCESSIVELY.
   ELEMENT FINAL_PART-1.702 IS DISTORTING EXCESSIVELY.
   ELEMENT FINAL_PART-1.703 IS DISTORTING EXCESSIVELY.
   ELEMENT FINAL_PART-1.706 IS DISTORTING EXCESSIVELY.
   ELEMENT FINAL_PART-1.708 IS DISTORTING EXCESSIVELY.
   ELEMENT FINAL_PART-1.709 IS DISTORTING EXCESSIVELY.
   ELEMENT FINAL_PART-1.711 IS DISTORTING EXCESSIVELY.
   ELEMENT FINAL_PART-1.712 IS DISTORTING EXCESSIVELY.
   ELEMENT FINAL_PART-1.716 IS DISTORTING EXCESSIVELY.
   ELEMENT FINAL_PART-1.718 IS DISTORTING EXCESSIVELY.
   ELEMENT FINAL_PART-1.719 IS DISTORTING EXCESSIVELY.
   ELEMENT FINAL_PART-1.720 IS DISTORTING EXCESSIVELY.
   ELEMENT FINAL_PART-1.723 IS DISTORTING EXCESSIVELY.
   ELEMENT FINAL_PART-1.724 IS DISTORTING EXCESSIVELY.
   ELEMENT FINAL_PART-1.727 IS DISTORTING EXCESSIVELY.
   ELEMENT FINAL_PART-1.728 IS DISTORTING EXCESSIVELY.
   ELEMENT FINAL_PART-1.730 IS DISTORTING EXCESSIVELY.
   ELEMENT FINAL_PART-1.731 IS DISTORTING EXCESSIVELY.
   ELEMENT FINAL_PART-1.734 IS DISTORTING EXCESSIVELY.
   ELEMENT FINAL_PART-1.735 IS DISTORTING EXCESSIVELY.
   ELEMENT FINAL_PART-1.737 IS DISTORTING EXCESSIVELY.
   ELEMENT FINAL_PART-1.740 IS DISTORTING EXCESSIVELY.
   ELEMENT FINAL_PART-1.741 IS DISTORTING EXCESSIVELY.
   ELEMENT FINAL_PART-1.746 IS DISTORTING EXCESSIVELY.
   ELEMENT FINAL_PART-1.748 IS DISTORTING EXCESSIVELY.
   ELEMENT FINAL_PART-1.749 IS DISTORTING EXCESSIVELY.
   ELEMENT FINAL_PART-1.751 IS DISTORTING EXCESSIVELY.
   ELEMENT FINAL_PART-1.752 IS DISTORTING EXCESSIVELY.
   ELEMENT FINAL_PART-1.753 IS DISTORTING EXCESSIVELY.
   ELEMENT FINAL_PART-1.754 IS DISTORTING EXCESSIVELY.
   ELEMENT FINAL_PART-1.761 IS DISTORTING EXCESSIVELY.
   ELEMENT FINAL_PART-1.763 IS DISTORTING EXCESSIVELY.
   ELEMENT FINAL_PART-1.765 IS DISTORTING EXCESSIVELY.
   ELEMENT FINAL_PART-1.768 IS DISTORTING EXCESSIVELY.
   ELEMENT FINAL_PART-1.772 IS DISTORTING EXCESSIVELY.
   ELEMENT FINAL_PART-1.776 IS DISTORTING EXCESSIVELY.
   ELEMENT FINAL_PART-1.777 IS DISTORTING EXCESSIVELY.
   ELEMENT FINAL_PART-1.781 IS DISTORTING EXCESSIVELY.
   ELEMENT FINAL_PART-1.782 IS DISTORTING EXCESSIVELY.
   ELEMENT FINAL_PART-1.783 IS DISTORTING EXCESSIVELY.
   ELEMENT FINAL_PART-1.785 IS DISTORTING EXCESSIVELY.
   ELEMENT FINAL_PART-1.787 IS DISTORTING EXCESSIVELY.
   ELEMENT FINAL_PART-1.791 IS DISTORTING EXCESSIVELY.
   ELEMENT FINAL_PART-1.793 IS DISTORTING EXCESSIVELY.
   ELEMENT FINAL_PART-1.794 IS DISTORTING EXCESSIVELY.
   ELEMENT FINAL_PART-1.797 IS DISTORTING EXCESSIVELY.
   ELEMENT FINAL_PART-1.800 IS DISTORTING EXCESSIVELY.
   ELEMENT FINAL_PART-1.801 IS DISTORTING EXCESSIVELY.
   ELEMENT FINAL_PART-1.802 IS DISTORTING EXCESSIVELY.
   ELEMENT FINAL_PART-1.803 IS DISTORTING EXCESSIVELY.
   ELEMENT FINAL_PART-1.806 IS DISTORTING EXCESSIVELY.
   ELEMENT FINAL_PART-1.807 IS DISTORTING EXCESSIVELY.
   ELEMENT FINAL_PART-1.811 IS DISTORTING EXCESSIVELY.
   ELEMENT FINAL_PART-1.813 IS DISTORTING EXCESSIVELY.
   ELEMENT FINAL_PART-1.814 IS DISTORTING EXCESSIVELY.
   ELEMENT FINAL_PART-1.817 IS DISTORTING EXCESSIVELY.
   ELEMENT FINAL_PART-1.821 IS DISTORTING EXCESSIVELY.
   ELEMENT FINAL_PART-1.823 IS DISTORTING EXCESSIVELY.
   ELEMENT FINAL_PART-1.824 IS DISTORTING EXCESSIVELY.
   ELEMENT FINAL_PART-1.826 IS DISTORTING EXCESSIVELY.
   ELEMENT FINAL_PART-1.827 IS DISTORTING EXCESSIVELY.
   ELEMENT FINAL_PART-1.828 IS DISTORTING EXCESSIVELY.
   ELEMENT FINAL_PART-1.830 IS DISTORTING EXCESSIVELY.
   ELEMENT FINAL_PART-1.832 IS DISTORTING EXCESSIVELY.
   ELEMENT FINAL_PART-1.833 IS DISTORTING EXCESSIVELY.
   ELEMENT FINAL_PART-1.836 IS DISTORTING EXCESSIVELY.
   ELEMENT FINAL_PART-1.837 IS DISTORTING EXCESSIVELY.
   ELEMENT FINAL_PART-1.840 IS DISTORTING EXCESSIVELY.
   ELEMENT FINAL_PART-1.841 IS DISTORTING EXCESSIVELY.
   ELEMENT FINAL_PART-1.842 IS DISTORTING EXCESSIVELY.
   ELEMENT FINAL_PART-1.843 IS DISTORTING EXCESSIVELY.
   ELEMENT FINAL_PART-1.844 IS DISTORTING EXCESSIVELY.
   ELEMENT FINAL_PART-1.845 IS DISTORTING EXCESSIVELY.
   ELEMENT FINAL_PART-1.847 IS DISTORTING EXCESSIVELY.
   ELEMENT FINAL_PART-1.849 IS DISTORTING EXCESSIVELY.
   ELEMENT FINAL_PART-1.850 IS DISTORTING EXCESSIVELY.
   ELEMENT FINAL_PART-1.851 IS DISTORTING EXCESSIVELY.
   ELEMENT FINAL_PART-1.858 IS DISTORTING EXCESSIVELY.
   ELEMENT FINAL_PART-1.860 IS DISTORTING EXCESSIVELY.
   ELEMENT FINAL_PART-1.861 IS DISTORTING EXCESSIVELY.
   ELEMENT FINAL_PART-1.863 IS DISTORTING EXCESSIVELY.
   ELEMENT FINAL_PART-1.865 IS DISTORTING EXCESSIVELY.
   ELEMENT FINAL_PART-1.867 IS DISTORTING EXCESSIVELY.
   ELEMENT FINAL_PART-1.868 IS DISTORTING EXCESSIVELY.
   ELEMENT FINAL_PART-1.871 IS DISTORTING EXCESSIVELY.
   ELEMENT FINAL_PART-1.874 IS DISTORTING EXCESSIVELY.
   ELEMENT FINAL_PART-1.878 IS DISTORTING EXCESSIVELY.
   ELEMENT FINAL_PART-1.880 IS DISTORTING EXCESSIVELY.
   ELEMENT FINAL_PART-1.881 IS DISTORTING EXCESSIVELY.
   ELEMENT FINAL_PART-1.883 IS DISTORTING EXCESSIVELY.
   ELEMENT FINAL_PART-1.884 IS DISTORTING EXCESSIVELY.
   ELEMENT FINAL_PART-1.885 IS DISTORTING EXCESSIVELY.
   ELEMENT FINAL_PART-1.888 IS DISTORTING EXCESSIVELY.
   ELEMENT FINAL_PART-1.889 IS DISTORTING EXCESSIVELY.
   ELEMENT FINAL_PART-1.894 IS DISTORTING EXCESSIVELY.
   ELEMENT FINAL_PART-1.895 IS DISTORTING EXCESSIVELY.
   ELEMENT FINAL_PART-1.897 IS DISTORTING EXCESSIVELY.
   ELEMENT FINAL_PART-1.898 IS DISTORTING EXCESSIVELY.
   ELEMENT FINAL_PART-1.899 IS DISTORTING EXCESSIVELY.
   ELEMENT FINAL_PART-1.900 IS DISTORTING EXCESSIVELY.
   ELEMENT FINAL_PART-1.903 IS DISTORTING EXCESSIVELY.
   ELEMENT FINAL_PART-1.904 IS DISTORTING EXCESSIVELY.
   ELEMENT FINAL_PART-1.905 IS DISTORTING EXCESSIVELY.
   ELEMENT FINAL_PART-1.908 IS DISTORTING EXCESSIVELY.
   ELEMENT FINAL_PART-1.909 IS DISTORTING EXCESSIVELY.
   ELEMENT FINAL_PART-1.910 IS DISTORTING EXCESSIVELY.
   ELEMENT FINAL_PART-1.911 IS DISTORTING EXCESSIVELY.
   ELEMENT FINAL_PART-1.914 IS DISTORTING EXCESSIVELY.
   ELEMENT FINAL_PART-1.916 IS DISTORTING EXCESSIVELY.
   ELEMENT FINAL_PART-1.919 IS DISTORTING EXCESSIVELY.
   ELEMENT FINAL_PART-1.922 IS DISTORTING EXCESSIVELY.
   ELEMENT FINAL_PART-1.926 IS DISTORTING EXCESSIVELY.
   ELEMENT FINAL_PART-1.928 IS DISTORTING EXCESSIVELY.
   ELEMENT FINAL_PART-1.931 IS DISTORTING EXCESSIVELY.
   ELEMENT FINAL_PART-1.932 IS DISTORTING EXCESSIVELY.
   ELEMENT FINAL_PART-1.933 IS DISTORTING EXCESSIVELY.
   ELEMENT FINAL_PART-1.938 IS DISTORTING EXCESSIVELY.
   ELEMENT FINAL_PART-1.939 IS DISTORTING EXCESSIVELY.
   ELEMENT FINAL_PART-1.940 IS DISTORTING EXCESSIVELY.
   ELEMENT FINAL_PART-1.946 IS DISTORTING EXCESSIVELY.
   ELEMENT FINAL_PART-1.948 IS DISTORTING EXCESSIVELY.
   ELEMENT FINAL_PART-1.951 IS DISTORTING EXCESSIVELY.
   ELEMENT FINAL_PART-1.953 IS DISTORTING EXCESSIVELY.
   ELEMENT FINAL_PART-1.957 IS DISTORTING EXCESSIVELY.
   ELEMENT FINAL_PART-1.958 IS DISTORTING EXCESSIVELY.
   ELEMENT FINAL_PART-1.959 IS DISTORTING EXCESSIVELY.
   ELEMENT FINAL_PART-1.960 IS DISTORTING EXCESSIVELY.
   ELEMENT FINAL_PART-1.964 IS DISTORTING EXCESSIVELY.
   ELEMENT FINAL_PART-1.966 IS DISTORTING EXCESSIVELY.
   ELEMENT FINAL_PART-1.967 IS DISTORTING EXCESSIVELY.
   ELEMENT FINAL_PART-1.969 IS DISTORTING EXCESSIVELY.
   ELEMENT FINAL_PART-1.970 IS DISTORTING EXCESSIVELY.
   ELEMENT FINAL_PART-1.971 IS DISTORTING EXCESSIVELY.
   ELEMENT FINAL_PART-1.973 IS DISTORTING EXCESSIVELY.
   ELEMENT FINAL_PART-1.974 IS DISTORTING EXCESSIVELY.
   ELEMENT FINAL_PART-1.977 IS DISTORTING EXCESSIVELY.
   ELEMENT FINAL_PART-1.979 IS DISTORTING EXCESSIVELY.
   ELEMENT FINAL_PART-1.980 IS DISTORTING EXCESSIVELY.
   ELEMENT FINAL_PART-1.985 IS DISTORTING EXCESSIVELY.
   ELEMENT FINAL_PART-1.986 IS DISTORTING EXCESSIVELY.
   ELEMENT FINAL_PART-1.989 IS DISTORTING EXCESSIVELY.
   ELEMENT FINAL_PART-1.991 IS DISTORTING EXCESSIVELY.
   ELEMENT FINAL_PART-1.993 IS DISTORTING EXCESSIVELY.
   ELEMENT FINAL_PART-1.994 IS DISTORTING EXCESSIVELY.
   ELEMENT FINAL_PART-1.995 IS DISTORTING EXCESSIVELY.
   ELEMENT FINAL_PART-1.996 IS DISTORTING EXCESSIVELY.
   ELEMENT FINAL_PART-1.999 IS DISTORTING EXCESSIVELY.
   ELEMENT FINAL_PART-1.1000 IS DISTORTING EXCESSIVELY.
   ELEMENT FINAL_PART-1.1006 IS DISTORTING EXCESSIVELY.
   ELEMENT FINAL_PART-1.1007 IS DISTORTING EXCESSIVELY.
   ELEMENT FINAL_PART-1.1009 IS DISTORTING EXCESSIVELY.
   ELEMENT FINAL_PART-1.1010 IS DISTORTING EXCESSIVELY.
   ELEMENT FINAL_PART-1.1013 IS DISTORTING EXCESSIVELY.
   ELEMENT FINAL_PART-1.1014 IS DISTORTING EXCESSIVELY.
   ELEMENT FINAL_PART-1.1015 IS DISTORTING EXCESSIVELY.
   ELEMENT FINAL_PART-1.1017 IS DISTORTING EXCESSIVELY.
   ELEMENT FINAL_PART-1.1019 IS DISTORTING EXCESSIVELY.
   ELEMENT FINAL_PART-1.1021 IS DISTORTING EXCESSIVELY.
   ELEMENT FINAL_PART-1.1022 IS DISTORTING EXCESSIVELY.
   ELEMENT FINAL_PART-1.1024 IS DISTORTING EXCESSIVELY.
   ELEMENT FINAL_PART-1.1035 IS DISTORTING EXCESSIVELY.
   ELEMENT FINAL_PART-1.1036 IS DISTORTING EXCESSIVELY.
   ELEMENT FINAL_PART-1.1038 IS DISTORTING EXCESSIVELY.
   ELEMENT FINAL_PART-1.1040 IS DISTORTING EXCESSIVELY.
   ELEMENT FINAL_PART-1.1041 IS DISTORTING EXCESSIVELY.
   ELEMENT FINAL_PART-1.1042 IS DISTORTING EXCESSIVELY.
   ELEMENT FINAL_PART-1.1043 IS DISTORTING EXCESSIVELY.
   ELEMENT FINAL_PART-1.1044 IS DISTORTING EXCESSIVELY.
   ELEMENT FINAL_PART-1.1045 IS DISTORTING EXCESSIVELY.
   ELEMENT FINAL_PART-1.1047 IS DISTORTING EXCESSIVELY.
   ELEMENT FINAL_PART-1.1048 IS DISTORTING EXCESSIVELY.
   ELEMENT FINAL_PART-1.1050 IS DISTORTING EXCESSIVELY.
   ELEMENT FINAL_PART-1.1053 IS DISTORTING EXCESSIVELY.
   ELEMENT FINAL_PART-1.1055 IS DISTORTING EXCESSIVELY.
   ELEMENT FINAL_PART-1.1056 IS DISTORTING EXCESSIVELY.
   ELEMENT FINAL_PART-1.1058 IS DISTORTING EXCESSIVELY.
   ELEMENT FINAL_PART-1.1059 IS DISTORTING EXCESSIVELY.
   ELEMENT FINAL_PART-1.1060 IS DISTORTING EXCESSIVELY.
   ELEMENT FINAL_PART-1.1062 IS DISTORTING EXCESSIVELY.
   ELEMENT FINAL_PART-1.1063 IS DISTORTING EXCESSIVELY.
   ELEMENT FINAL_PART-1.1065 IS DISTORTING EXCESSIVELY.
   ELEMENT FINAL_PART-1.1066 IS DISTORTING EXCESSIVELY.
   ELEMENT FINAL_PART-1.1069 IS DISTORTING EXCESSIVELY.
   ELEMENT FINAL_PART-1.1070 IS DISTORTING EXCESSIVELY.
   ELEMENT FINAL_PART-1.1072 IS DISTORTING EXCESSIVELY.
   ELEMENT FINAL_PART-1.1074 IS DISTORTING EXCESSIVELY.
   ELEMENT FINAL_PART-1.1076 IS DISTORTING EXCESSIVELY.
   ELEMENT FINAL_PART-1.1078 IS DISTORTING EXCESSIVELY.
   ELEMENT FINAL_PART-1.1079 IS DISTORTING EXCESSIVELY.
   ELEMENT FINAL_PART-1.1081 IS DISTORTING EXCESSIVELY.
   ELEMENT FINAL_PART-1.1082 IS DISTORTING EXCESSIVELY.
   ELEMENT FINAL_PART-1.1083 IS DISTORTING EXCESSIVELY.
   ELEMENT FINAL_PART-1.1086 IS DISTORTING EXCESSIVELY.
   ELEMENT FINAL_PART-1.1088 IS DISTORTING EXCESSIVELY.
   ELEMENT FINAL_PART-1.1089 IS DISTORTING EXCESSIVELY.
   ELEMENT FINAL_PART-1.1094 IS DISTORTING EXCESSIVELY.
   ELEMENT FINAL_PART-1.1095 IS DISTORTING EXCESSIVELY.
   ELEMENT FINAL_PART-1.1096 IS DISTORTING EXCESSIVELY.
   ELEMENT FINAL_PART-1.1098 IS DISTORTING EXCESSIVELY.
   ELEMENT FINAL_PART-1.1099 IS DISTORTING EXCESSIVELY.
   ELEMENT FINAL_PART-1.1100 IS DISTORTING EXCESSIVELY.
   ELEMENT FINAL_PART-1.1101 IS DISTORTING EXCESSIVELY.
   ELEMENT FINAL_PART-1.1102 IS DISTORTING EXCESSIVELY.
   ELEMENT FINAL_PART-1.1104 IS DISTORTING EXCESSIVELY.
   ELEMENT FINAL_PART-1.1106 IS DISTORTING EXCESSIVELY.
   ELEMENT FINAL_PART-1.1109 IS DISTORTING EXCESSIVELY.
   ELEMENT FINAL_PART-1.1112 IS DISTORTING EXCESSIVELY.
   ELEMENT FINAL_PART-1.1113 IS DISTORTING EXCESSIVELY.
   ELEMENT FINAL_PART-1.1114 IS DISTORTING EXCESSIVELY.
   ELEMENT FINAL_PART-1.1116 IS DISTORTING EXCESSIVELY.
   ELEMENT FINAL_PART-1.1118 IS DISTORTING EXCESSIVELY.
   ELEMENT FINAL_PART-1.1120 IS DISTORTING EXCESSIVELY.
   ELEMENT FINAL_PART-1.1121 IS DISTORTING EXCESSIVELY.
   ELEMENT FINAL_PART-1.1122 IS DISTORTING EXCESSIVELY.
   ELEMENT FINAL_PART-1.1123 IS DISTORTING EXCESSIVELY.
   ELEMENT FINAL_PART-1.1125 IS DISTORTING EXCESSIVELY.
   ELEMENT FINAL_PART-1.1126 IS DISTORTING EXCESSIVELY.
   ELEMENT FINAL_PART-1.1128 IS DISTORTING EXCESSIVELY.
   ELEMENT FINAL_PART-1.1129 IS DISTORTING EXCESSIVELY.
   ELEMENT FINAL_PART-1.1134 IS DISTORTING EXCESSIVELY.
   ELEMENT FINAL_PART-1.1138 IS DISTORTING EXCESSIVELY.
   ELEMENT FINAL_PART-1.1140 IS DISTORTING EXCESSIVELY.
   ELEMENT FINAL_PART-1.1141 IS DISTORTING EXCESSIVELY.
   ELEMENT FINAL_PART-1.1144 IS DISTORTING EXCESSIVELY.
   ELEMENT FINAL_PART-1.1146 IS DISTORTING EXCESSIVELY.
   ELEMENT FINAL_PART-1.1147 IS DISTORTING EXCESSIVELY.
   ELEMENT FINAL_PART-1.1153 IS DISTORTING EXCESSIVELY.
   ELEMENT FINAL_PART-1.1159 IS DISTORTING EXCESSIVELY.
   ELEMENT FINAL_PART-1.1161 IS DISTORTING EXCESSIVELY.
   ELEMENT FINAL_PART-1.1163 IS DISTORTING EXCESSIVELY.
   ELEMENT FINAL_PART-1.1165 IS DISTORTING EXCESSIVELY.
   ELEMENT FINAL_PART-1.1167 IS DISTORTING EXCESSIVELY.
   ELEMENT FINAL_PART-1.1168 IS DISTORTING EXCESSIVELY.
   ELEMENT FINAL_PART-1.1171 IS DISTORTING EXCESSIVELY.
   ELEMENT FINAL_PART-1.1172 IS DISTORTING EXCESSIVELY.
   ELEMENT FINAL_PART-1.1173 IS DISTORTING EXCESSIVELY.
   ELEMENT FINAL_PART-1.1176 IS DISTORTING EXCESSIVELY.
   ELEMENT FINAL_PART-1.1178 IS DISTORTING EXCESSIVELY.
   ELEMENT FINAL_PART-1.1180 IS DISTORTING EXCESSIVELY.
   ELEMENT FINAL_PART-1.1181 IS DISTORTING EXCESSIVELY.
   ELEMENT FINAL_PART-1.1182 IS DISTORTING EXCESSIVELY.
   ELEMENT FINAL_PART-1.1184 IS DISTORTING EXCESSIVELY.
   ELEMENT FINAL_PART-1.1185 IS DISTORTING EXCESSIVELY.
   ELEMENT FINAL_PART-1.1186 IS DISTORTING EXCESSIVELY.
   ELEMENT FINAL_PART-1.1188 IS DISTORTING EXCESSIVELY.
   ELEMENT FINAL_PART-1.1189 IS DISTORTING EXCESSIVELY.
   ELEMENT FINAL_PART-1.1190 IS DISTORTING EXCESSIVELY.
   ELEMENT FINAL_PART-1.1193 IS DISTORTING EXCESSIVELY.
   ELEMENT FINAL_PART-1.1194 IS DISTORTING EXCESSIVELY.
   ELEMENT FINAL_PART-1.1197 IS DISTORTING EXCESSIVELY.
   ELEMENT FINAL_PART-1.1198 IS DISTORTING EXCESSIVELY.
   ELEMENT FINAL_PART-1.1200 IS DISTORTING EXCESSIVELY.
   ELEMENT FINAL_PART-1.1204 IS DISTORTING EXCESSIVELY.
   ELEMENT FINAL_PART-1.1206 IS DISTORTING EXCESSIVELY.
   ELEMENT FINAL_PART-1.1207 IS DISTORTING EXCESSIVELY.
   ELEMENT FINAL_PART-1.1209 IS DISTORTING EXCESSIVELY.
   ELEMENT FINAL_PART-1.1210 IS DISTORTING EXCESSIVELY.
   ELEMENT FINAL_PART-1.1213 IS DISTORTING EXCESSIVELY.
   ELEMENT FINAL_PART-1.1214 IS DISTORTING EXCESSIVELY.
   ELEMENT FINAL_PART-1.1219 IS DISTORTING EXCESSIVELY.
   ELEMENT FINAL_PART-1.1220 IS DISTORTING EXCESSIVELY.
   ELEMENT FINAL_PART-1.1222 IS DISTORTING EXCESSIVELY.
   ELEMENT FINAL_PART-1.1224 IS DISTORTING EXCESSIVELY.
   ELEMENT FINAL_PART-1.1225 IS DISTORTING EXCESSIVELY.
   ELEMENT FINAL_PART-1.1226 IS DISTORTING EXCESSIVELY.
   ELEMENT FINAL_PART-1.1227 IS DISTORTING EXCESSIVELY.
   ELEMENT FINAL_PART-1.1231 IS DISTORTING EXCESSIVELY.
   ELEMENT FINAL_PART-1.1232 IS DISTORTING EXCESSIVELY.
   ELEMENT FINAL_PART-1.1234 IS DISTORTING EXCESSIVELY.
   ELEMENT FINAL_PART-1.1239 IS DISTORTING EXCESSIVELY.
   ELEMENT FINAL_PART-1.1240 IS DISTORTING EXCESSIVELY.
   ELEMENT FINAL_PART-1.1241 IS DISTORTING EXCESSIVELY.
   ELEMENT FINAL_PART-1.1242 IS DISTORTING EXCESSIVELY.
   ELEMENT FINAL_PART-1.1244 IS DISTORTING EXCESSIVELY.
   ELEMENT FINAL_PART-1.1245 IS DISTORTING EXCESSIVELY.
   ELEMENT FINAL_PART-1.1246 IS DISTORTING EXCESSIVELY.
   ELEMENT FINAL_PART-1.1247 IS DISTORTING EXCESSIVELY.
   ELEMENT FINAL_PART-1.1249 IS DISTORTING EXCESSIVELY.
   ELEMENT FINAL_PART-1.1250 IS DISTORTING EXCESSIVELY.
   ELEMENT FINAL_PART-1.1253 IS DISTORTING EXCESSIVELY.
   ELEMENT FINAL_PART-1.1254 IS DISTORTING EXCESSIVELY.
   ELEMENT FINAL_PART-1.1255 IS DISTORTING EXCESSIVELY.
   ELEMENT FINAL_PART-1.1256 IS DISTORTING EXCESSIVELY.
   ELEMENT FINAL_PART-1.1257 IS DISTORTING EXCESSIVELY.
   ELEMENT FINAL_PART-1.1258 IS DISTORTING EXCESSIVELY.
   ELEMENT FINAL_PART-1.1260 IS DISTORTING EXCESSIVELY.
   ELEMENT FINAL_PART-1.1266 IS DISTORTING EXCESSIVELY.
   ELEMENT FINAL_PART-1.1268 IS DISTORTING EXCESSIVELY.
   ELEMENT FINAL_PART-1.1271 IS DISTORTING EXCESSIVELY.
   ELEMENT FINAL_PART-1.1274 IS DISTORTING EXCESSIVELY.
   ELEMENT FINAL_PART-1.1275 IS DISTORTING EXCESSIVELY.
   ELEMENT FINAL_PART-1.1277 IS DISTORTING EXCESSIVELY.
   ELEMENT FINAL_PART-1.1280 IS DISTORTING EXCESSIVELY.
   ELEMENT FINAL_PART-1.1284 IS DISTORTING EXCESSIVELY.
   ELEMENT FINAL_PART-1.1285 IS DISTORTING EXCESSIVELY.
   ELEMENT FINAL_PART-1.1288 IS DISTORTING EXCESSIVELY.
   ELEMENT FINAL_PART-1.1290 IS DISTORTING EXCESSIVELY.
   ELEMENT FINAL_PART-1.1293 IS DISTORTING EXCESSIVELY.
   ELEMENT FINAL_PART-1.1295 IS DISTORTING EXCESSIVELY.
   ELEMENT FINAL_PART-1.1296 IS DISTORTING EXCESSIVELY.
   ELEMENT FINAL_PART-1.1299 IS DISTORTING EXCESSIVELY.
   ELEMENT FINAL_PART-1.1300 IS DISTORTING EXCESSIVELY.
   ELEMENT FINAL_PART-1.1301 IS DISTORTING EXCESSIVELY.
   ELEMENT FINAL_PART-1.1302 IS DISTORTING EXCESSIVELY.
   ELEMENT FINAL_PART-1.1304 IS DISTORTING EXCESSIVELY.
   ELEMENT FINAL_PART-1.1306 IS DISTORTING EXCESSIVELY.
   ELEMENT FINAL_PART-1.1307 IS DISTORTING EXCESSIVELY.
   ELEMENT FINAL_PART-1.1309 IS DISTORTING EXCESSIVELY.
   ELEMENT FINAL_PART-1.1312 IS DISTORTING EXCESSIVELY.
   ELEMENT FINAL_PART-1.1315 IS DISTORTING EXCESSIVELY.
   ELEMENT FINAL_PART-1.1317 IS DISTORTING EXCESSIVELY.
   ELEMENT FINAL_PART-1.1319 IS DISTORTING EXCESSIVELY.
   ELEMENT FINAL_PART-1.1321 IS DISTORTING EXCESSIVELY.
   ELEMENT FINAL_PART-1.1323 IS DISTORTING EXCESSIVELY.
   ELEMENT FINAL_PART-1.1327 IS DISTORTING EXCESSIVELY.
   ELEMENT FINAL_PART-1.1328 IS DISTORTING EXCESSIVELY.
   ELEMENT FINAL_PART-1.1329 IS DISTORTING EXCESSIVELY.
   ELEMENT FINAL_PART-1.1331 IS DISTORTING EXCESSIVELY.
   ELEMENT FINAL_PART-1.1332 IS DISTORTING EXCESSIVELY.
   ELEMENT FINAL_PART-1.1335 IS DISTORTING EXCESSIVELY.
   ELEMENT FINAL_PART-1.1336 IS DISTORTING EXCESSIVELY.
   ELEMENT FINAL_PART-1.1339 IS DISTORTING EXCESSIVELY.
   ELEMENT FINAL_PART-1.1343 IS DISTORTING EXCESSIVELY.
   ELEMENT FINAL_PART-1.1344 IS DISTORTING EXCESSIVELY.
   ELEMENT FINAL_PART-1.1345 IS DISTORTING EXCESSIVELY.
   ELEMENT FINAL_PART-1.1347 IS DISTORTING EXCESSIVELY.
   ELEMENT FINAL_PART-1.1348 IS DISTORTING EXCESSIVELY.
   ELEMENT FINAL_PART-1.1349 IS DISTORTING EXCESSIVELY.
   ELEMENT FINAL_PART-1.1352 IS DISTORTING EXCESSIVELY.
   ELEMENT FINAL_PART-1.1353 IS DISTORTING EXCESSIVELY.
   ELEMENT FINAL_PART-1.1356 IS DISTORTING EXCESSIVELY.
   ELEMENT FINAL_PART-1.1358 IS DISTORTING EXCESSIVELY.
   ELEMENT FINAL_PART-1.1361 IS DISTORTING EXCESSIVELY.
   ELEMENT FINAL_PART-1.1363 IS DISTORTING EXCESSIVELY.
   ELEMENT FINAL_PART-1.1364 IS DISTORTING EXCESSIVELY.
   ELEMENT FINAL_PART-1.1366 IS DISTORTING EXCESSIVELY.
   ELEMENT FINAL_PART-1.1370 IS DISTORTING EXCESSIVELY.
   ELEMENT FINAL_PART-1.1372 IS DISTORTING EXCESSIVELY.
   ELEMENT FINAL_PART-1.1373 IS DISTORTING EXCESSIVELY.
   ELEMENT FINAL_PART-1.1374 IS DISTORTING EXCESSIVELY.
   ELEMENT FINAL_PART-1.1375 IS DISTORTING EXCESSIVELY.
   ELEMENT FINAL_PART-1.1376 IS DISTORTING EXCESSIVELY.
   ELEMENT FINAL_PART-1.1377 IS DISTORTING EXCESSIVELY.
   ELEMENT FINAL_PART-1.1378 IS DISTORTING EXCESSIVELY.
   ELEMENT FINAL_PART-1.1379 IS DISTORTING EXCESSIVELY.
   ELEMENT FINAL_PART-1.1380 IS DISTORTING EXCESSIVELY.
   ELEMENT FINAL_PART-1.1382 IS DISTORTING EXCESSIVELY.
   ELEMENT FINAL_PART-1.1386 IS DISTORTING EXCESSIVELY.
   ELEMENT FINAL_PART-1.1393 IS DISTORTING EXCESSIVELY.
   ELEMENT FINAL_PART-1.1396 IS DISTORTING EXCESSIVELY.
   ELEMENT FINAL_PART-1.1397 IS DISTORTING EXCESSIVELY.
   ELEMENT FINAL_PART-1.1402 IS DISTORTING EXCESSIVELY.
   ELEMENT FINAL_PART-1.1404 IS DISTORTING EXCESSIVELY.
   ELEMENT FINAL_PART-1.1405 IS DISTORTING EXCESSIVELY.
   ELEMENT FINAL_PART-1.1407 IS DISTORTING EXCESSIVELY.
   ELEMENT FINAL_PART-1.1408 IS DISTORTING EXCESSIVELY.
   ELEMENT FINAL_PART-1.1409 IS DISTORTING EXCESSIVELY.
   ELEMENT FINAL_PART-1.1410 IS DISTORTING EXCESSIVELY.
   ELEMENT FINAL_PART-1.1411 IS DISTORTING EXCESSIVELY.
   ELEMENT FINAL_PART-1.1413 IS DISTORTING EXCESSIVELY.
   ELEMENT FINAL_PART-1.1414 IS DISTORTING EXCESSIVELY.
   ELEMENT FINAL_PART-1.1416 IS DISTORTING EXCESSIVELY.
   ELEMENT FINAL_PART-1.1417 IS DISTORTING EXCESSIVELY.
   ELEMENT FINAL_PART-1.1418 IS DISTORTING EXCESSIVELY.
   ELEMENT FINAL_PART-1.1420 IS DISTORTING EXCESSIVELY.
   ELEMENT FINAL_PART-1.1424 IS DISTORTING EXCESSIVELY.
   ELEMENT FINAL_PART-1.1429 IS DISTORTING EXCESSIVELY.
   ELEMENT FINAL_PART-1.1430 IS DISTORTING EXCESSIVELY.
   ELEMENT FINAL_PART-1.1431 IS DISTORTING EXCESSIVELY.
   ELEMENT FINAL_PART-1.1432 IS DISTORTING EXCESSIVELY.
   ELEMENT FINAL_PART-1.1435 IS DISTORTING EXCESSIVELY.
   ELEMENT FINAL_PART-1.1436 IS DISTORTING EXCESSIVELY.
   ELEMENT FINAL_PART-1.1437 IS DISTORTING EXCESSIVELY.
   ELEMENT FINAL_PART-1.1439 IS DISTORTING EXCESSIVELY.
   ELEMENT FINAL_PART-1.1440 IS DISTORTING EXCESSIVELY.
   ELEMENT FINAL_PART-1.1442 IS DISTORTING EXCESSIVELY.
   ELEMENT FINAL_PART-1.1444 IS DISTORTING EXCESSIVELY.
   ELEMENT FINAL_PART-1.1445 IS DISTORTING EXCESSIVELY.
   ELEMENT FINAL_PART-1.1446 IS DISTORTING EXCESSIVELY.
   ELEMENT FINAL_PART-1.1447 IS DISTORTING EXCESSIVELY.
   ELEMENT FINAL_PART-1.1448 IS DISTORTING EXCESSIVELY.
   ELEMENT FINAL_PART-1.1449 IS DISTORTING EXCESSIVELY.
   ELEMENT FINAL_PART-1.1450 IS DISTORTING EXCESSIVELY.
   ELEMENT FINAL_PART-1.1452 IS DISTORTING EXCESSIVELY.
   ELEMENT FINAL_PART-1.1453 IS DISTORTING EXCESSIVELY.
   ELEMENT FINAL_PART-1.1456 IS DISTORTING EXCESSIVELY.
   ELEMENT FINAL_PART-1.1457 IS DISTORTING EXCESSIVELY.
   ELEMENT FINAL_PART-1.1458 IS DISTORTING EXCESSIVELY.
   ELEMENT FINAL_PART-1.1461 IS DISTORTING EXCESSIVELY.
   ELEMENT FINAL_PART-1.1462 IS DISTORTING EXCESSIVELY.
   ELEMENT FINAL_PART-1.1463 IS DISTORTING EXCESSIVELY.
   ELEMENT FINAL_PART-1.1465 IS DISTORTING EXCESSIVELY.
   ELEMENT FINAL_PART-1.1466 IS DISTORTING EXCESSIVELY.
   ELEMENT FINAL_PART-1.1476 IS DISTORTING EXCESSIVELY.
   ELEMENT FINAL_PART-1.1480 IS DISTORTING EXCESSIVELY.
   ELEMENT FINAL_PART-1.1481 IS DISTORTING EXCESSIVELY.
   ELEMENT FINAL_PART-1.1482 IS DISTORTING EXCESSIVELY.
   ELEMENT FINAL_PART-1.1483 IS DISTORTING EXCESSIVELY.
   ELEMENT FINAL_PART-1.1487 IS DISTORTING EXCESSIVELY.
   ELEMENT FINAL_PART-1.1488 IS DISTORTING EXCESSIVELY.
   ELEMENT FINAL_PART-1.1490 IS DISTORTING EXCESSIVELY.
   ELEMENT FINAL_PART-1.1492 IS DISTORTING EXCESSIVELY.
   ELEMENT FINAL_PART-1.1493 IS DISTORTING EXCESSIVELY.
   ELEMENT FINAL_PART-1.1497 IS DISTORTING EXCESSIVELY.
   ELEMENT FINAL_PART-1.1498 IS DISTORTING EXCESSIVELY.
   ELEMENT FINAL_PART-1.1500 IS DISTORTING EXCESSIVELY.
   ELEMENT FINAL_PART-1.1503 IS DISTORTING EXCESSIVELY.
   ELEMENT FINAL_PART-1.1505 IS DISTORTING EXCESSIVELY.
   ELEMENT FINAL_PART-1.1507 IS DISTORTING EXCESSIVELY.
   ELEMENT FINAL_PART-1.1508 IS DISTORTING EXCESSIVELY.
   ELEMENT FINAL_PART-1.1510 IS DISTORTING EXCESSIVELY.
   ELEMENT FINAL_PART-1.1513 IS DISTORTING EXCESSIVELY.
   ELEMENT FINAL_PART-1.1514 IS DISTORTING EXCESSIVELY.
   ELEMENT FINAL_PART-1.1518 IS DISTORTING EXCESSIVELY.
   ELEMENT FINAL_PART-1.1519 IS DISTORTING EXCESSIVELY.
   ELEMENT FINAL_PART-1.1520 IS DISTORTING EXCESSIVELY.
   ELEMENT FINAL_PART-1.1521 IS DISTORTING EXCESSIVELY.
   ELEMENT FINAL_PART-1.1522 IS DISTORTING EXCESSIVELY.
   ELEMENT FINAL_PART-1.1523 IS DISTORTING EXCESSIVELY.
   ELEMENT FINAL_PART-1.1524 IS DISTORTING EXCESSIVELY.
   ELEMENT FINAL_PART-1.1525 IS DISTORTING EXCESSIVELY.
   ELEMENT FINAL_PART-1.1528 IS DISTORTING EXCESSIVELY.
   ELEMENT FINAL_PART-1.1529 IS DISTORTING EXCESSIVELY.
   ELEMENT FINAL_PART-1.1532 IS DISTORTING EXCESSIVELY.
   ELEMENT FINAL_PART-1.1535 IS DISTORTING EXCESSIVELY.
   ELEMENT FINAL_PART-1.1536 IS DISTORTING EXCESSIVELY.
   ELEMENT FINAL_PART-1.1540 IS DISTORTING EXCESSIVELY.
   ELEMENT FINAL_PART-1.1541 IS DISTORTING EXCESSIVELY.
   ELEMENT FINAL_PART-1.1542 IS DISTORTING EXCESSIVELY.
   ELEMENT FINAL_PART-1.1547 IS DISTORTING EXCESSIVELY.
   ELEMENT FINAL_PART-1.1549 IS DISTORTING EXCESSIVELY.
   ELEMENT FINAL_PART-1.1554 IS DISTORTING EXCESSIVELY.
   ELEMENT FINAL_PART-1.1556 IS DISTORTING EXCESSIVELY.
   ELEMENT FINAL_PART-1.1558 IS DISTORTING EXCESSIVELY.
   ELEMENT FINAL_PART-1.1559 IS DISTORTING EXCESSIVELY.
   ELEMENT FINAL_PART-1.1562 IS DISTORTING EXCESSIVELY.
   ELEMENT FINAL_PART-1.1563 IS DISTORTING EXCESSIVELY.
   ELEMENT FINAL_PART-1.1564 IS DISTORTING EXCESSIVELY.
   ELEMENT FINAL_PART-1.1567 IS DISTORTING EXCESSIVELY.
   ELEMENT FINAL_PART-1.1568 IS DISTORTING EXCESSIVELY.
   ELEMENT FINAL_PART-1.1571 IS DISTORTING EXCESSIVELY.
   ELEMENT FINAL_PART-1.1574 IS DISTORTING EXCESSIVELY.
   ELEMENT FINAL_PART-1.1575 IS DISTORTING EXCESSIVELY.
   ELEMENT FINAL_PART-1.1576 IS DISTORTING EXCESSIVELY.
   ELEMENT FINAL_PART-1.1577 IS DISTORTING EXCESSIVELY.
   ELEMENT FINAL_PART-1.1578 IS DISTORTING EXCESSIVELY.
   ELEMENT FINAL_PART-1.1579 IS DISTORTING EXCESSIVELY.
   ELEMENT FINAL_PART-1.1580 IS DISTORTING EXCESSIVELY.
   ELEMENT FINAL_PART-1.1583 IS DISTORTING EXCESSIVELY.
   ELEMENT FINAL_PART-1.1584 IS DISTORTING EXCESSIVELY.
   ELEMENT FINAL_PART-1.1585 IS DISTORTING EXCESSIVELY.
   ELEMENT FINAL_PART-1.1586 IS DISTORTING EXCESSIVELY.
   ELEMENT FINAL_PART-1.1588 IS DISTORTING EXCESSIVELY.
   ELEMENT FINAL_PART-1.1590 IS DISTORTING EXCESSIVELY.
   ELEMENT FINAL_PART-1.1592 IS DISTORTING EXCESSIVELY.
   ELEMENT FINAL_PART-1.1593 IS DISTORTING EXCESSIVELY.
   ELEMENT FINAL_PART-1.1595 IS DISTORTING EXCESSIVELY.
   ELEMENT FINAL_PART-1.1598 IS DISTORTING EXCESSIVELY.
   ELEMENT FINAL_PART-1.1600 IS DISTORTING EXCESSIVELY.
   ELEMENT FINAL_PART-1.1601 IS DISTORTING EXCESSIVELY.
   ELEMENT FINAL_PART-1.1602 IS DISTORTING EXCESSIVELY.
   ELEMENT FINAL_PART-1.1603 IS DISTORTING EXCESSIVELY.
   ELEMENT FINAL_PART-1.1605 IS DISTORTING EXCESSIVELY.
   ELEMENT FINAL_PART-1.1611 IS DISTORTING EXCESSIVELY.
   ELEMENT FINAL_PART-1.1614 IS DISTORTING EXCESSIVELY.
   ELEMENT FINAL_PART-1.1615 IS DISTORTING EXCESSIVELY.
   ELEMENT FINAL_PART-1.1618 IS DISTORTING EXCESSIVELY.
   ELEMENT FINAL_PART-1.1619 IS DISTORTING EXCESSIVELY.
   ELEMENT FINAL_PART-1.1620 IS DISTORTING EXCESSIVELY.
   ELEMENT FINAL_PART-1.1621 IS DISTORTING EXCESSIVELY.
   ELEMENT FINAL_PART-1.1622 IS DISTORTING EXCESSIVELY.
   ELEMENT FINAL_PART-1.1627 IS DISTORTING EXCESSIVELY.
   ELEMENT FINAL_PART-1.1628 IS DISTORTING EXCESSIVELY.
   ELEMENT FINAL_PART-1.1629 IS DISTORTING EXCESSIVELY.
   ELEMENT FINAL_PART-1.1630 IS DISTORTING EXCESSIVELY.
   ELEMENT FINAL_PART-1.1631 IS DISTORTING EXCESSIVELY.
   ELEMENT FINAL_PART-1.1635 IS DISTORTING EXCESSIVELY.
   ELEMENT FINAL_PART-1.1636 IS DISTORTING EXCESSIVELY.
   ELEMENT FINAL_PART-1.1640 IS DISTORTING EXCESSIVELY.
   ELEMENT FINAL_PART-1.1642 IS DISTORTING EXCESSIVELY.
   ELEMENT FINAL_PART-1.1644 IS DISTORTING EXCESSIVELY.
   ELEMENT FINAL_PART-1.1649 IS DISTORTING EXCESSIVELY.
   ELEMENT FINAL_PART-1.1651 IS DISTORTING EXCESSIVELY.
   ELEMENT FINAL_PART-1.1652 IS DISTORTING EXCESSIVELY.
   ELEMENT FINAL_PART-1.1653 IS DISTORTING EXCESSIVELY.
   ELEMENT FINAL_PART-1.1654 IS DISTORTING EXCESSIVELY.
   ELEMENT FINAL_PART-1.1656 IS DISTORTING EXCESSIVELY.
   ELEMENT FINAL_PART-1.1658 IS DISTORTING EXCESSIVELY.
   ELEMENT FINAL_PART-1.1660 IS DISTORTING EXCESSIVELY.
   ELEMENT FINAL_PART-1.1663 IS DISTORTING EXCESSIVELY.
   ELEMENT FINAL_PART-1.1665 IS DISTORTING EXCESSIVELY.
   ELEMENT FINAL_PART-1.1666 IS DISTORTING EXCESSIVELY.
   ELEMENT FINAL_PART-1.1670 IS DISTORTING EXCESSIVELY.
   ELEMENT FINAL_PART-1.1671 IS DISTORTING EXCESSIVELY.
   ELEMENT FINAL_PART-1.1672 IS DISTORTING EXCESSIVELY.
   ELEMENT FINAL_PART-1.1673 IS DISTORTING EXCESSIVELY.
   ELEMENT FINAL_PART-1.1674 IS DISTORTING EXCESSIVELY.
   ELEMENT FINAL_PART-1.1675 IS DISTORTING EXCESSIVELY.
   ELEMENT FINAL_PART-1.1676 IS DISTORTING EXCESSIVELY.
   ELEMENT FINAL_PART-1.1677 IS DISTORTING EXCESSIVELY.
   ELEMENT FINAL_PART-1.1678 IS DISTORTING EXCESSIVELY.
   ELEMENT FINAL_PART-1.1679 IS DISTORTING EXCESSIVELY.
   ELEMENT FINAL_PART-1.1680 IS DISTORTING EXCESSIVELY.
   ELEMENT FINAL_PART-1.1684 IS DISTORTING EXCESSIVELY.
   ELEMENT FINAL_PART-1.1686 IS DISTORTING EXCESSIVELY.
   ELEMENT FINAL_PART-1.1687 IS DISTORTING EXCESSIVELY.
   ELEMENT FINAL_PART-1.1688 IS DISTORTING EXCESSIVELY.
   ELEMENT FINAL_PART-1.1689 IS DISTORTING EXCESSIVELY.
   ELEMENT FINAL_PART-1.1690 IS DISTORTING EXCESSIVELY.
   ELEMENT FINAL_PART-1.1694 IS DISTORTING EXCESSIVELY.
   ELEMENT FINAL_PART-1.1698 IS DISTORTING EXCESSIVELY.
   ELEMENT FINAL_PART-1.1700 IS DISTORTING EXCESSIVELY.
   ELEMENT FINAL_PART-1.1701 IS DISTORTING EXCESSIVELY.
   ELEMENT FINAL_PART-1.1704 IS DISTORTING EXCESSIVELY.
   ELEMENT FINAL_PART-1.1706 IS DISTORTING EXCESSIVELY.
   ELEMENT FINAL_PART-1.1707 IS DISTORTING EXCESSIVELY.
   ELEMENT FINAL_PART-1.1708 IS DISTORTING EXCESSIVELY.
   ELEMENT FINAL_PART-1.1710 IS DISTORTING EXCESSIVELY.
   ELEMENT FINAL_PART-1.1711 IS DISTORTING EXCESSIVELY.
   ELEMENT FINAL_PART-1.1712 IS DISTORTING EXCESSIVELY.
   ELEMENT FINAL_PART-1.1713 IS DISTORTING EXCESSIVELY.
   ELEMENT FINAL_PART-1.1715 IS DISTORTING EXCESSIVELY.
   ELEMENT FINAL_PART-1.1719 IS DISTORTING EXCESSIVELY.
   ELEMENT FINAL_PART-1.1724 IS DISTORTING EXCESSIVELY.
   ELEMENT FINAL_PART-1.1725 IS DISTORTING EXCESSIVELY.
   ELEMENT FINAL_PART-1.1727 IS DISTORTING EXCESSIVELY.
   ELEMENT FINAL_PART-1.1728 IS DISTORTING EXCESSIVELY.
   ELEMENT FINAL_PART-1.1729 IS DISTORTING EXCESSIVELY.
   ELEMENT FINAL_PART-1.1730 IS DISTORTING EXCESSIVELY.
   ELEMENT FINAL_PART-1.1731 IS DISTORTING EXCESSIVELY.
   ELEMENT FINAL_PART-1.1732 IS DISTORTING EXCESSIVELY.
   ELEMENT FINAL_PART-1.1733 IS DISTORTING EXCESSIVELY.
   ELEMENT FINAL_PART-1.1734 IS DISTORTING EXCESSIVELY.
   ELEMENT FINAL_PART-1.1736 IS DISTORTING EXCESSIVELY.
   ELEMENT FINAL_PART-1.1737 IS DISTORTING EXCESSIVELY.
   ELEMENT FINAL_PART-1.1738 IS DISTORTING EXCESSIVELY.
   ELEMENT FINAL_PART-1.1741 IS DISTORTING EXCESSIVELY.
   ELEMENT FINAL_PART-1.1742 IS DISTORTING EXCESSIVELY.
   ELEMENT FINAL_PART-1.1743 IS DISTORTING EXCESSIVELY.
   ELEMENT FINAL_PART-1.1745 IS DISTORTING EXCESSIVELY.
   ELEMENT FINAL_PART-1.1746 IS DISTORTING EXCESSIVELY.
   ELEMENT FINAL_PART-1.1752 IS DISTORTING EXCESSIVELY.
   ELEMENT FINAL_PART-1.1756 IS DISTORTING EXCESSIVELY.
   ELEMENT FINAL_PART-1.1757 IS DISTORTING EXCESSIVELY.
   ELEMENT FINAL_PART-1.1759 IS DISTORTING EXCESSIVELY.
   ELEMENT FINAL_PART-1.1760 IS DISTORTING EXCESSIVELY.
   ELEMENT FINAL_PART-1.1764 IS DISTORTING EXCESSIVELY.
   ELEMENT FINAL_PART-1.1772 IS DISTORTING EXCESSIVELY.
   ELEMENT FINAL_PART-1.1773 IS DISTORTING EXCESSIVELY.
   ELEMENT FINAL_PART-1.1775 IS DISTORTING EXCESSIVELY.
   ELEMENT FINAL_PART-1.1777 IS DISTORTING EXCESSIVELY.
   ELEMENT FINAL_PART-1.1779 IS DISTORTING EXCESSIVELY.
   ELEMENT FINAL_PART-1.1781 IS DISTORTING EXCESSIVELY.
   ELEMENT FINAL_PART-1.1782 IS DISTORTING EXCESSIVELY.
   ELEMENT FINAL_PART-1.1783 IS DISTORTING EXCESSIVELY.
   ELEMENT FINAL_PART-1.1786 IS DISTORTING EXCESSIVELY.
   ELEMENT FINAL_PART-1.1788 IS DISTORTING EXCESSIVELY.
   ELEMENT FINAL_PART-1.1789 IS DISTORTING EXCESSIVELY.
   ELEMENT FINAL_PART-1.1791 IS DISTORTING EXCESSIVELY.
   ELEMENT FINAL_PART-1.1792 IS DISTORTING EXCESSIVELY.
   ELEMENT FINAL_PART-1.1793 IS DISTORTING EXCESSIVELY.
   ELEMENT FINAL_PART-1.1794 IS DISTORTING EXCESSIVELY.
   ELEMENT FINAL_PART-1.1797 IS DISTORTING EXCESSIVELY.
   ELEMENT FINAL_PART-1.1798 IS DISTORTING EXCESSIVELY.
   ELEMENT FINAL_PART-1.1799 IS DISTORTING EXCESSIVELY.
   ELEMENT FINAL_PART-1.1800 IS DISTORTING EXCESSIVELY.
   ELEMENT FINAL_PART-1.1802 IS DISTORTING EXCESSIVELY.
   ELEMENT FINAL_PART-1.1803 IS DISTORTING EXCESSIVELY.
   ELEMENT FINAL_PART-1.1804 IS DISTORTING EXCESSIVELY.
   ELEMENT FINAL_PART-1.1806 IS DISTORTING EXCESSIVELY.
   ELEMENT FINAL_PART-1.1808 IS DISTORTING EXCESSIVELY.
   ELEMENT FINAL_PART-1.1810 IS DISTORTING EXCESSIVELY.
   ELEMENT FINAL_PART-1.1811 IS DISTORTING EXCESSIVELY.
   ELEMENT FINAL_PART-1.1814 IS DISTORTING EXCESSIVELY.
   ELEMENT FINAL_PART-1.1815 IS DISTORTING EXCESSIVELY.
   ELEMENT FINAL_PART-1.1816 IS DISTORTING EXCESSIVELY.
   ELEMENT FINAL_PART-1.1817 IS DISTORTING EXCESSIVELY.
   ELEMENT FINAL_PART-1.1820 IS DISTORTING EXCESSIVELY.
   ELEMENT FINAL_PART-1.1821 IS DISTORTING EXCESSIVELY.
   ELEMENT FINAL_PART-1.1823 IS DISTORTING EXCESSIVELY.
   ELEMENT FINAL_PART-1.1826 IS DISTORTING EXCESSIVELY.
   ELEMENT FINAL_PART-1.1828 IS DISTORTING EXCESSIVELY.
   ELEMENT FINAL_PART-1.1829 IS DISTORTING EXCESSIVELY.
   ELEMENT FINAL_PART-1.1831 IS DISTORTING EXCESSIVELY.
   ELEMENT FINAL_PART-1.1835 IS DISTORTING EXCESSIVELY.
   ELEMENT FINAL_PART-1.1837 IS DISTORTING EXCESSIVELY.
   ELEMENT FINAL_PART-1.1840 IS DISTORTING EXCESSIVELY.
   ELEMENT FINAL_PART-1.1842 IS DISTORTING EXCESSIVELY.
   ELEMENT FINAL_PART-1.1843 IS DISTORTING EXCESSIVELY.
   ELEMENT FINAL_PART-1.1845 IS DISTORTING EXCESSIVELY.
   ELEMENT FINAL_PART-1.1846 IS DISTORTING EXCESSIVELY.
   ELEMENT FINAL_PART-1.1849 IS DISTORTING EXCESSIVELY.
   ELEMENT FINAL_PART-1.1850 IS DISTORTING EXCESSIVELY.
   ELEMENT FINAL_PART-1.1851 IS DISTORTING EXCESSIVELY.
   ELEMENT FINAL_PART-1.1853 IS DISTORTING EXCESSIVELY.
   ELEMENT FINAL_PART-1.1855 IS DISTORTING EXCESSIVELY.
   ELEMENT FINAL_PART-1.1859 IS DISTORTING EXCESSIVELY.
   ELEMENT FINAL_PART-1.1860 IS DISTORTING EXCESSIVELY.
   ELEMENT FINAL_PART-1.1862 IS DISTORTING EXCESSIVELY.
   ELEMENT FINAL_PART-1.1863 IS DISTORTING EXCESSIVELY.
   ELEMENT FINAL_PART-1.1864 IS DISTORTING EXCESSIVELY.
   ELEMENT FINAL_PART-1.1867 IS DISTORTING EXCESSIVELY.
   ELEMENT FINAL_PART-1.1868 IS DISTORTING EXCESSIVELY.
   ELEMENT FINAL_PART-1.1869 IS DISTORTING EXCESSIVELY.
   ELEMENT FINAL_PART-1.1870 IS DISTORTING EXCESSIVELY.
   ELEMENT FINAL_PART-1.1872 IS DISTORTING EXCESSIVELY.
   ELEMENT FINAL_PART-1.1873 IS DISTORTING EXCESSIVELY.
   ELEMENT FINAL_PART-1.1878 IS DISTORTING EXCESSIVELY.
   ELEMENT FINAL_PART-1.1879 IS DISTORTING EXCESSIVELY.
   ELEMENT FINAL_PART-1.1881 IS DISTORTING EXCESSIVELY.
   ELEMENT FINAL_PART-1.1882 IS DISTORTING EXCESSIVELY.
   ELEMENT FINAL_PART-1.1884 IS DISTORTING EXCESSIVELY.
   ELEMENT FINAL_PART-1.1886 IS DISTORTING EXCESSIVELY.
   ELEMENT FINAL_PART-1.1887 IS DISTORTING EXCESSIVELY.
   ELEMENT FINAL_PART-1.1891 IS DISTORTING EXCESSIVELY.
   ELEMENT FINAL_PART-1.1893 IS DISTORTING EXCESSIVELY.
   ELEMENT FINAL_PART-1.1897 IS DISTORTING EXCESSIVELY.
   ELEMENT FINAL_PART-1.1899 IS DISTORTING EXCESSIVELY.
   ELEMENT FINAL_PART-1.1901 IS DISTORTING EXCESSIVELY.
   ELEMENT FINAL_PART-1.1902 IS DISTORTING EXCESSIVELY.
   ELEMENT FINAL_PART-1.1903 IS DISTORTING EXCESSIVELY.
   ELEMENT FINAL_PART-1.1912 IS DISTORTING EXCESSIVELY.
   ELEMENT FINAL_PART-1.1914 IS DISTORTING EXCESSIVELY.
   ELEMENT FINAL_PART-1.1915 IS DISTORTING EXCESSIVELY.
   ELEMENT FINAL_PART-1.1916 IS DISTORTING EXCESSIVELY.
   ELEMENT FINAL_PART-1.1917 IS DISTORTING EXCESSIVELY.
   ELEMENT FINAL_PART-1.1918 IS DISTORTING EXCESSIVELY.
   ELEMENT FINAL_PART-1.1923 IS DISTORTING EXCESSIVELY.
   ELEMENT FINAL_PART-1.1927 IS DISTORTING EXCESSIVELY.
   ELEMENT FINAL_PART-1.1929 IS DISTORTING EXCESSIVELY.
   ELEMENT FINAL_PART-1.1930 IS DISTORTING EXCESSIVELY.
   ELEMENT FINAL_PART-1.1931 IS DISTORTING EXCESSIVELY.
   ELEMENT FINAL_PART-1.1933 IS DISTORTING EXCESSIVELY.
   ELEMENT FINAL_PART-1.1934 IS DISTORTING EXCESSIVELY.
   ELEMENT FINAL_PART-1.1937 IS DISTORTING EXCESSIVELY.
   ELEMENT FINAL_PART-1.1939 IS DISTORTING EXCESSIVELY.
   ELEMENT FINAL_PART-1.1940 IS DISTORTING EXCESSIVELY.
   ELEMENT FINAL_PART-1.1942 IS DISTORTING EXCESSIVELY.
   ELEMENT FINAL_PART-1.1943 IS DISTORTING EXCESSIVELY.
   ELEMENT FINAL_PART-1.1944 IS DISTORTING EXCESSIVELY.
   ELEMENT FINAL_PART-1.1947 IS DISTORTING EXCESSIVELY.
   ELEMENT FINAL_PART-1.1948 IS DISTORTING EXCESSIVELY.
   ELEMENT FINAL_PART-1.1951 IS DISTORTING EXCESSIVELY.
   ELEMENT FINAL_PART-1.1956 IS DISTORTING EXCESSIVELY.
   ELEMENT FINAL_PART-1.1957 IS DISTORTING EXCESSIVELY.
   ELEMENT FINAL_PART-1.1959 IS DISTORTING EXCESSIVELY.
   ELEMENT FINAL_PART-1.1962 IS DISTORTING EXCESSIVELY.
   ELEMENT FINAL_PART-1.1963 IS DISTORTING EXCESSIVELY.
   ELEMENT FINAL_PART-1.1966 IS DISTORTING EXCESSIVELY.
   ELEMENT FINAL_PART-1.1967 IS DISTORTING EXCESSIVELY.
   ELEMENT FINAL_PART-1.1969 IS DISTORTING EXCESSIVELY.
   ELEMENT FINAL_PART-1.1971 IS DISTORTING EXCESSIVELY.
   ELEMENT FINAL_PART-1.1975 IS DISTORTING EXCESSIVELY.
   ELEMENT FINAL_PART-1.1977 IS DISTORTING EXCESSIVELY.
   ELEMENT FINAL_PART-1.1980 IS DISTORTING EXCESSIVELY.
   ELEMENT FINAL_PART-1.1982 IS DISTORTING EXCESSIVELY.
   ELEMENT FINAL_PART-1.1983 IS DISTORTING EXCESSIVELY.
   ELEMENT FINAL_PART-1.1985 IS DISTORTING EXCESSIVELY.
   ELEMENT FINAL_PART-1.1986 IS DISTORTING EXCESSIVELY.
   ELEMENT FINAL_PART-1.1993 IS DISTORTING EXCESSIVELY.
   ELEMENT FINAL_PART-1.1994 IS DISTORTING EXCESSIVELY.
   ELEMENT FINAL_PART-1.1998 IS DISTORTING EXCESSIVELY.
   ELEMENT FINAL_PART-1.2001 IS DISTORTING EXCESSIVELY.
   ELEMENT FINAL_PART-1.2003 IS DISTORTING EXCESSIVELY.
   ELEMENT FINAL_PART-1.2004 IS DISTORTING EXCESSIVELY.
   ELEMENT FINAL_PART-1.2006 IS DISTORTING EXCESSIVELY.
   ELEMENT FINAL_PART-1.2007 IS DISTORTING EXCESSIVELY.
   ELEMENT FINAL_PART-1.2009 IS DISTORTING EXCESSIVELY.
   ELEMENT FINAL_PART-1.2010 IS DISTORTING EXCESSIVELY.
   ELEMENT FINAL_PART-1.2013 IS DISTORTING EXCESSIVELY.
   ELEMENT FINAL_PART-1.2014 IS DISTORTING EXCESSIVELY.
   ELEMENT FINAL_PART-1.2015 IS DISTORTING EXCESSIVELY.
   ELEMENT FINAL_PART-1.2018 IS DISTORTING EXCESSIVELY.
   ELEMENT FINAL_PART-1.2021 IS DISTORTING EXCESSIVELY.
   ELEMENT FINAL_PART-1.2022 IS DISTORTING EXCESSIVELY.
   ELEMENT FINAL_PART-1.2023 IS DISTORTING EXCESSIVELY.
   ELEMENT FINAL_PART-1.2027 IS DISTORTING EXCESSIVELY.
   ELEMENT FINAL_PART-1.2028 IS DISTORTING EXCESSIVELY.
   ELEMENT FINAL_PART-1.2030 IS DISTORTING EXCESSIVELY.
   ELEMENT FINAL_PART-1.2031 IS DISTORTING EXCESSIVELY.
   ELEMENT FINAL_PART-1.2032 IS DISTORTING EXCESSIVELY.
   ELEMENT FINAL_PART-1.2033 IS DISTORTING EXCESSIVELY.
   ELEMENT FINAL_PART-1.2035 IS DISTORTING EXCESSIVELY.
   ELEMENT FINAL_PART-1.2037 IS DISTORTING EXCESSIVELY.
   ELEMENT FINAL_PART-1.2040 IS DISTORTING EXCESSIVELY.
   ELEMENT FINAL_PART-1.2043 IS DISTORTING EXCESSIVELY.
   ELEMENT FINAL_PART-1.2045 IS DISTORTING EXCESSIVELY.
   ELEMENT FINAL_PART-1.2047 IS DISTORTING EXCESSIVELY.
   ELEMENT FINAL_PART-1.2048 IS DISTORTING EXCESSIVELY.
   ELEMENT FINAL_PART-1.2049 IS DISTORTING EXCESSIVELY.
   ELEMENT FINAL_PART-1.2050 IS DISTORTING EXCESSIVELY.
   ELEMENT FINAL_PART-1.2051 IS DISTORTING EXCESSIVELY.
   ELEMENT FINAL_PART-1.2053 IS DISTORTING EXCESSIVELY.
   ELEMENT FINAL_PART-1.2055 IS DISTORTING EXCESSIVELY.
   ELEMENT FINAL_PART-1.2057 IS DISTORTING EXCESSIVELY.
   ELEMENT FINAL_PART-1.2058 IS DISTORTING EXCESSIVELY.
   ELEMENT FINAL_PART-1.2059 IS DISTORTING EXCESSIVELY.
   ELEMENT FINAL_PART-1.2060 IS DISTORTING EXCESSIVELY.
   ELEMENT FINAL_PART-1.2062 IS DISTORTING EXCESSIVELY.
   ELEMENT FINAL_PART-1.2063 IS DISTORTING EXCESSIVELY.
   ELEMENT FINAL_PART-1.2065 IS DISTORTING EXCESSIVELY.
   ELEMENT FINAL_PART-1.2067 IS DISTORTING EXCESSIVELY.
   ELEMENT FINAL_PART-1.2069 IS DISTORTING EXCESSIVELY.
   ELEMENT FINAL_PART-1.2070 IS DISTORTING EXCESSIVELY.
   ELEMENT FINAL_PART-1.2072 IS DISTORTING EXCESSIVELY.
   ELEMENT FINAL_PART-1.2073 IS DISTORTING EXCESSIVELY.
   ELEMENT FINAL_PART-1.2074 IS DISTORTING EXCESSIVELY.
   ELEMENT FINAL_PART-1.2076 IS DISTORTING EXCESSIVELY.
   ELEMENT FINAL_PART-1.2079 IS DISTORTING EXCESSIVELY.
   ELEMENT FINAL_PART-1.2080 IS DISTORTING EXCESSIVELY.
   ELEMENT FINAL_PART-1.2085 IS DISTORTING EXCESSIVELY.
   ELEMENT FINAL_PART-1.2088 IS DISTORTING EXCESSIVELY.
   ELEMENT FINAL_PART-1.2089 IS DISTORTING EXCESSIVELY.
   ELEMENT FINAL_PART-1.2090 IS DISTORTING EXCESSIVELY.
   ELEMENT FINAL_PART-1.2091 IS DISTORTING EXCESSIVELY.
   ELEMENT FINAL_PART-1.2092 IS DISTORTING EXCESSIVELY.
   ELEMENT FINAL_PART-1.2095 IS DISTORTING EXCESSIVELY.
   ELEMENT FINAL_PART-1.2096 IS DISTORTING EXCESSIVELY.
   ELEMENT FINAL_PART-1.2104 IS DISTORTING EXCESSIVELY.
   ELEMENT FINAL_PART-1.2106 IS DISTORTING EXCESSIVELY.
   ELEMENT FINAL_PART-1.2107 IS DISTORTING EXCESSIVELY.
   ELEMENT FINAL_PART-1.2108 IS DISTORTING EXCESSIVELY.
   ELEMENT FINAL_PART-1.2110 IS DISTORTING EXCESSIVELY.
   ELEMENT FINAL_PART-1.2112 IS DISTORTING EXCESSIVELY.
   ELEMENT FINAL_PART-1.2114 IS DISTORTING EXCESSIVELY.
   ELEMENT FINAL_PART-1.2117 IS DISTORTING EXCESSIVELY.
   ELEMENT FINAL_PART-1.2118 IS DISTORTING EXCESSIVELY.
   ELEMENT FINAL_PART-1.2119 IS DISTORTING EXCESSIVELY.
   ELEMENT FINAL_PART-1.2123 IS DISTORTING EXCESSIVELY.
   ELEMENT FINAL_PART-1.2127 IS DISTORTING EXCESSIVELY.
   ELEMENT FINAL_PART-1.2128 IS DISTORTING EXCESSIVELY.
   ELEMENT FINAL_PART-1.2130 IS DISTORTING EXCESSIVELY.
   ELEMENT FINAL_PART-1.2131 IS DISTORTING EXCESSIVELY.
   ELEMENT FINAL_PART-1.2132 IS DISTORTING EXCESSIVELY.
   ELEMENT FINAL_PART-1.2133 IS DISTORTING EXCESSIVELY.
   ELEMENT FINAL_PART-1.2137 IS DISTORTING EXCESSIVELY.
   ELEMENT FINAL_PART-1.2140 IS DISTORTING EXCESSIVELY.
   ELEMENT FINAL_PART-1.2141 IS DISTORTING EXCESSIVELY.
   ELEMENT FINAL_PART-1.2143 IS DISTORTING EXCESSIVELY.
   ELEMENT FINAL_PART-1.2144 IS DISTORTING EXCESSIVELY.
   ELEMENT FINAL_PART-1.2145 IS DISTORTING EXCESSIVELY.
   ELEMENT FINAL_PART-1.2148 IS DISTORTING EXCESSIVELY.
   ELEMENT FINAL_PART-1.2151 IS DISTORTING EXCESSIVELY.
   ELEMENT FINAL_PART-1.2152 IS DISTORTING EXCESSIVELY.
   ELEMENT FINAL_PART-1.2153 IS DISTORTING EXCESSIVELY.
   ELEMENT FINAL_PART-1.2154 IS DISTORTING EXCESSIVELY.
   ELEMENT FINAL_PART-1.2158 IS DISTORTING EXCESSIVELY.
   ELEMENT FINAL_PART-1.2159 IS DISTORTING EXCESSIVELY.
   ELEMENT FINAL_PART-1.2160 IS DISTORTING EXCESSIVELY.
   ELEMENT FINAL_PART-1.2162 IS DISTORTING EXCESSIVELY.
   ELEMENT FINAL_PART-1.2167 IS DISTORTING EXCESSIVELY.
   ELEMENT FINAL_PART-1.2168 IS DISTORTING EXCESSIVELY.
   ELEMENT FINAL_PART-1.2169 IS DISTORTING EXCESSIVELY.
   ELEMENT FINAL_PART-1.2170 IS DISTORTING EXCESSIVELY.
   ELEMENT FINAL_PART-1.2171 IS DISTORTING EXCESSIVELY.
   ELEMENT FINAL_PART-1.2173 IS DISTORTING EXCESSIVELY.
   ELEMENT FINAL_PART-1.2174 IS DISTORTING EXCESSIVELY.
   ELEMENT FINAL_PART-1.2175 IS DISTORTING EXCESSIVELY.
   ELEMENT FINAL_PART-1.2178 IS DISTORTING EXCESSIVELY.
   ELEMENT FINAL_PART-1.2180 IS DISTORTING EXCESSIVELY.
   ELEMENT FINAL_PART-1.2181 IS DISTORTING EXCESSIVELY.
   ELEMENT FINAL_PART-1.2182 IS DISTORTING EXCESSIVELY.
   ELEMENT FINAL_PART-1.2183 IS DISTORTING EXCESSIVELY.
   ELEMENT FINAL_PART-1.2185 IS DISTORTING EXCESSIVELY.
   ELEMENT FINAL_PART-1.2188 IS DISTORTING EXCESSIVELY.
   ELEMENT FINAL_PART-1.2189 IS DISTORTING EXCESSIVELY.
   ELEMENT FINAL_PART-1.2191 IS DISTORTING EXCESSIVELY.
   ELEMENT FINAL_PART-1.2192 IS DISTORTING EXCESSIVELY.
   ELEMENT FINAL_PART-1.2193 IS DISTORTING EXCESSIVELY.
   ELEMENT FINAL_PART-1.2194 IS DISTORTING EXCESSIVELY.
   ELEMENT FINAL_PART-1.2199 IS DISTORTING EXCESSIVELY.
   ELEMENT FINAL_PART-1.2200 IS DISTORTING EXCESSIVELY.
   ELEMENT FINAL_PART-1.2201 IS DISTORTING EXCESSIVELY.
   ELEMENT FINAL_PART-1.2203 IS DISTORTING EXCESSIVELY.
   ELEMENT FINAL_PART-1.2204 IS DISTORTING EXCESSIVELY.
   ELEMENT FINAL_PART-1.2205 IS DISTORTING EXCESSIVELY.
   ELEMENT FINAL_PART-1.2206 IS DISTORTING EXCESSIVELY.
   ELEMENT FINAL_PART-1.2207 IS DISTORTING EXCESSIVELY.
   ELEMENT FINAL_PART-1.2208 IS DISTORTING EXCESSIVELY.
   ELEMENT FINAL_PART-1.2210 IS DISTORTING EXCESSIVELY.
   ELEMENT FINAL_PART-1.2215 IS DISTORTING EXCESSIVELY.
   ELEMENT FINAL_PART-1.2219 IS DISTORTING EXCESSIVELY.
   ELEMENT FINAL_PART-1.2220 IS DISTORTING EXCESSIVELY.
   ELEMENT FINAL_PART-1.2222 IS DISTORTING EXCESSIVELY.
   ELEMENT FINAL_PART-1.2223 IS DISTORTING EXCESSIVELY.
   ELEMENT FINAL_PART-1.2224 IS DISTORTING EXCESSIVELY.
   ELEMENT FINAL_PART-1.2225 IS DISTORTING EXCESSIVELY.
   ELEMENT FINAL_PART-1.2227 IS DISTORTING EXCESSIVELY.
   ELEMENT FINAL_PART-1.2228 IS DISTORTING EXCESSIVELY.
   ELEMENT FINAL_PART-1.2229 IS DISTORTING EXCESSIVELY.
   ELEMENT FINAL_PART-1.2230 IS DISTORTING EXCESSIVELY.
   ELEMENT FINAL_PART-1.2231 IS DISTORTING EXCESSIVELY.
   ELEMENT FINAL_PART-1.2238 IS DISTORTING EXCESSIVELY.
   ELEMENT FINAL_PART-1.2239 IS DISTORTING EXCESSIVELY.
   ELEMENT FINAL_PART-1.2241 IS DISTORTING EXCESSIVELY.
   ELEMENT FINAL_PART-1.2244 IS DISTORTING EXCESSIVELY.
   ELEMENT FINAL_PART-1.2248 IS DISTORTING EXCESSIVELY.
   ELEMENT FINAL_PART-1.2249 IS DISTORTING EXCESSIVELY.
   ELEMENT FINAL_PART-1.2250 IS DISTORTING EXCESSIVELY.
   ELEMENT FINAL_PART-1.2252 IS DISTORTING EXCESSIVELY.
   ELEMENT FINAL_PART-1.2254 IS DISTORTING EXCESSIVELY.
   ELEMENT FINAL_PART-1.2255 IS DISTORTING EXCESSIVELY.
   ELEMENT FINAL_PART-1.2262 IS DISTORTING EXCESSIVELY.
   ELEMENT FINAL_PART-1.2263 IS DISTORTING EXCESSIVELY.
   ELEMENT FINAL_PART-1.2266 IS DISTORTING EXCESSIVELY.
   ELEMENT FINAL_PART-1.2267 IS DISTORTING EXCESSIVELY.
   ELEMENT FINAL_PART-1.2270 IS DISTORTING EXCESSIVELY.
   ELEMENT FINAL_PART-1.2271 IS DISTORTING EXCESSIVELY.
   ELEMENT FINAL_PART-1.2272 IS DISTORTING EXCESSIVELY.
   ELEMENT FINAL_PART-1.2273 IS DISTORTING EXCESSIVELY.
   ELEMENT FINAL_PART-1.2275 IS DISTORTING EXCESSIVELY.
   ELEMENT FINAL_PART-1.2279 IS DISTORTING EXCESSIVELY.
   ELEMENT FINAL_PART-1.2280 IS DISTORTING EXCESSIVELY.
   ELEMENT FINAL_PART-1.2281 IS DISTORTING EXCESSIVELY.
   ELEMENT FINAL_PART-1.2282 IS DISTORTING EXCESSIVELY.
   ELEMENT FINAL_PART-1.2283 IS DISTORTING EXCESSIVELY.
   ELEMENT FINAL_PART-1.2287 IS DISTORTING EXCESSIVELY.
   ELEMENT FINAL_PART-1.2288 IS DISTORTING EXCESSIVELY.
   ELEMENT FINAL_PART-1.2290 IS DISTORTING EXCESSIVELY.
   ELEMENT FINAL_PART-1.2291 IS DISTORTING EXCESSIVELY.
   ELEMENT FINAL_PART-1.2292 IS DISTORTING EXCESSIVELY.
   ELEMENT FINAL_PART-1.2294 IS DISTORTING EXCESSIVELY.
   ELEMENT FINAL_PART-1.2296 IS DISTORTING EXCESSIVELY.
   ELEMENT FINAL_PART-1.2298 IS DISTORTING EXCESSIVELY.
   ELEMENT FINAL_PART-1.2304 IS DISTORTING EXCESSIVELY.
   ELEMENT FINAL_PART-1.2305 IS DISTORTING EXCESSIVELY.
   ELEMENT FINAL_PART-1.2307 IS DISTORTING EXCESSIVELY.
   ELEMENT FINAL_PART-1.2310 IS DISTORTING EXCESSIVELY.
   ELEMENT FINAL_PART-1.2311 IS DISTORTING EXCESSIVELY.
   ELEMENT FINAL_PART-1.2313 IS DISTORTING EXCESSIVELY.
   ELEMENT FINAL_PART-1.2317 IS DISTORTING EXCESSIVELY.
   ELEMENT FINAL_PART-1.2318 IS DISTORTING EXCESSIVELY.
   ELEMENT FINAL_PART-1.2320 IS DISTORTING EXCESSIVELY.
   ELEMENT FINAL_PART-1.2321 IS DISTORTING EXCESSIVELY.
   ELEMENT FINAL_PART-1.2324 IS DISTORTING EXCESSIVELY.
   ELEMENT FINAL_PART-1.2326 IS DISTORTING EXCESSIVELY.
   ELEMENT FINAL_PART-1.2329 IS DISTORTING EXCESSIVELY.
   ELEMENT FINAL_PART-1.2330 IS DISTORTING EXCESSIVELY.
   ELEMENT FINAL_PART-1.2331 IS DISTORTING EXCESSIVELY.
   ELEMENT FINAL_PART-1.2332 IS DISTORTING EXCESSIVELY.
   ELEMENT FINAL_PART-1.2333 IS DISTORTING EXCESSIVELY.
   ELEMENT FINAL_PART-1.2341 IS DISTORTING EXCESSIVELY.
   ELEMENT FINAL_PART-1.2342 IS DISTORTING EXCESSIVELY.
   ELEMENT FINAL_PART-1.2343 IS DISTORTING EXCESSIVELY.
   ELEMENT FINAL_PART-1.2344 IS DISTORTING EXCESSIVELY.
   ELEMENT FINAL_PART-1.2345 IS DISTORTING EXCESSIVELY.
   ELEMENT FINAL_PART-1.2347 IS DISTORTING EXCESSIVELY.
   ELEMENT FINAL_PART-1.2350 IS DISTORTING EXCESSIVELY.
   ELEMENT FINAL_PART-1.2352 IS DISTORTING EXCESSIVELY.
   ELEMENT FINAL_PART-1.2353 IS DISTORTING EXCESSIVELY.
   ELEMENT FINAL_PART-1.2354 IS DISTORTING EXCESSIVELY.
   ELEMENT FINAL_PART-1.2357 IS DISTORTING EXCESSIVELY.
   ELEMENT FINAL_PART-1.2358 IS DISTORTING EXCESSIVELY.
   ELEMENT FINAL_PART-1.2359 IS DISTORTING EXCESSIVELY.
   ELEMENT FINAL_PART-1.2360 IS DISTORTING EXCESSIVELY.
   ELEMENT FINAL_PART-1.2361 IS DISTORTING EXCESSIVELY.
   ELEMENT FINAL_PART-1.2363 IS DISTORTING EXCESSIVELY.
   ELEMENT FINAL_PART-1.2364 IS DISTORTING EXCESSIVELY.
   ELEMENT FINAL_PART-1.2365 IS DISTORTING EXCESSIVELY.
   ELEMENT FINAL_PART-1.2366 IS DISTORTING EXCESSIVELY.
   ELEMENT FINAL_PART-1.2367 IS DISTORTING EXCESSIVELY.
   ELEMENT FINAL_PART-1.2368 IS DISTORTING EXCESSIVELY.
   ELEMENT FINAL_PART-1.2370 IS DISTORTING EXCESSIVELY.
   ELEMENT FINAL_PART-1.2371 IS DISTORTING EXCESSIVELY.
   ELEMENT FINAL_PART-1.2373 IS DISTORTING EXCESSIVELY.
   ELEMENT FINAL_PART-1.2374 IS DISTORTING EXCESSIVELY.
   ELEMENT FINAL_PART-1.2376 IS DISTORTING EXCESSIVELY.
   ELEMENT FINAL_PART-1.2377 IS DISTORTING EXCESSIVELY.
   ELEMENT FINAL_PART-1.2378 IS DISTORTING EXCESSIVELY.
   ELEMENT FINAL_PART-1.2379 IS DISTORTING EXCESSIVELY.
   ELEMENT FINAL_PART-1.2380 IS DISTORTING EXCESSIVELY.
   ELEMENT FINAL_PART-1.2381 IS DISTORTING EXCESSIVELY.
   ELEMENT FINAL_PART-1.2383 IS DISTORTING EXCESSIVELY.
   ELEMENT FINAL_PART-1.2385 IS DISTORTING EXCESSIVELY.
   ELEMENT FINAL_PART-1.2386 IS DISTORTING EXCESSIVELY.
   ELEMENT FINAL_PART-1.2387 IS DISTORTING EXCESSIVELY.
   ELEMENT FINAL_PART-1.2391 IS DISTORTING EXCESSIVELY.
   ELEMENT FINAL_PART-1.2393 IS DISTORTING EXCESSIVELY.
   ELEMENT FINAL_PART-1.2394 IS DISTORTING EXCESSIVELY.
   ELEMENT FINAL_PART-1.2398 IS DISTORTING EXCESSIVELY.
   ELEMENT FINAL_PART-1.2399 IS DISTORTING EXCESSIVELY.
   ELEMENT FINAL_PART-1.2400 IS DISTORTING EXCESSIVELY.
   ELEMENT FINAL_PART-1.2402 IS DISTORTING EXCESSIVELY.
   ELEMENT FINAL_PART-1.2403 IS DISTORTING EXCESSIVELY.
   ELEMENT FINAL_PART-1.2404 IS DISTORTING EXCESSIVELY.
   ELEMENT FINAL_PART-1.2410 IS DISTORTING EXCESSIVELY.
   ELEMENT FINAL_PART-1.2413 IS DISTORTING EXCESSIVELY.
   ELEMENT FINAL_PART-1.2414 IS DISTORTING EXCESSIVELY.
   ELEMENT FINAL_PART-1.2415 IS DISTORTING EXCESSIVELY.
   ELEMENT FINAL_PART-1.2417 IS DISTORTING EXCESSIVELY.
   ELEMENT FINAL_PART-1.2422 IS DISTORTING EXCESSIVELY.
   ELEMENT FINAL_PART-1.2423 IS DISTORTING EXCESSIVELY.
   ELEMENT FINAL_PART-1.2428 IS DISTORTING EXCESSIVELY.
   ELEMENT FINAL_PART-1.2429 IS DISTORTING EXCESSIVELY.
   ELEMENT FINAL_PART-1.2430 IS DISTORTING EXCESSIVELY.
   ELEMENT FINAL_PART-1.2433 IS DISTORTING EXCESSIVELY.
   ELEMENT FINAL_PART-1.2435 IS DISTORTING EXCESSIVELY.
   ELEMENT FINAL_PART-1.2436 IS DISTORTING EXCESSIVELY.
   ELEMENT FINAL_PART-1.2438 IS DISTORTING EXCESSIVELY.
   ELEMENT FINAL_PART-1.2439 IS DISTORTING EXCESSIVELY.
   ELEMENT FINAL_PART-1.2440 IS DISTORTING EXCESSIVELY.
   ELEMENT FINAL_PART-1.2441 IS DISTORTING EXCESSIVELY.
   ELEMENT FINAL_PART-1.2443 IS DISTORTING EXCESSIVELY.
   ELEMENT FINAL_PART-1.2445 IS DISTORTING EXCESSIVELY.
   ELEMENT FINAL_PART-1.2446 IS DISTORTING EXCESSIVELY.
   ELEMENT FINAL_PART-1.2447 IS DISTORTING EXCESSIVELY.
   ELEMENT FINAL_PART-1.2449 IS DISTORTING EXCESSIVELY.
   ELEMENT FINAL_PART-1.2451 IS DISTORTING EXCESSIVELY.
   ELEMENT FINAL_PART-1.2454 IS DISTORTING EXCESSIVELY.
   ELEMENT FINAL_PART-1.2455 IS DISTORTING EXCESSIVELY.
   ELEMENT FINAL_PART-1.2456 IS DISTORTING EXCESSIVELY.
   ELEMENT FINAL_PART-1.2459 IS DISTORTING EXCESSIVELY.
   ELEMENT FINAL_PART-1.2460 IS DISTORTING EXCESSIVELY.
   ELEMENT FINAL_PART-1.2461 IS DISTORTING EXCESSIVELY.
   ELEMENT FINAL_PART-1.2463 IS DISTORTING EXCESSIVELY.
   ELEMENT FINAL_PART-1.2466 IS DISTORTING EXCESSIVELY.
   ELEMENT FINAL_PART-1.2467 IS DISTORTING EXCESSIVELY.
   ELEMENT FINAL_PART-1.2468 IS DISTORTING EXCESSIVELY.
   ELEMENT FINAL_PART-1.2469 IS DISTORTING EXCESSIVELY.
   ELEMENT FINAL_PART-1.2472 IS DISTORTING EXCESSIVELY.
   ELEMENT FINAL_PART-1.2473 IS DISTORTING EXCESSIVELY.
   ELEMENT FINAL_PART-1.2474 IS DISTORTING EXCESSIVELY.
   ELEMENT FINAL_PART-1.2475 IS DISTORTING EXCESSIVELY.
   ELEMENT FINAL_PART-1.2476 IS DISTORTING EXCESSIVELY.
   ELEMENT FINAL_PART-1.2479 IS DISTORTING EXCESSIVELY.
   ELEMENT FINAL_PART-1.2481 IS DISTORTING EXCESSIVELY.
   ELEMENT FINAL_PART-1.2484 IS DISTORTING EXCESSIVELY.
   ELEMENT FINAL_PART-1.2485 IS DISTORTING EXCESSIVELY.
   ELEMENT FINAL_PART-1.2486 IS DISTORTING EXCESSIVELY.
   ELEMENT FINAL_PART-1.2490 IS DISTORTING EXCESSIVELY.
   ELEMENT FINAL_PART-1.2492 IS DISTORTING EXCESSIVELY.
   ELEMENT FINAL_PART-1.2493 IS DISTORTING EXCESSIVELY.
   ELEMENT FINAL_PART-1.2496 IS DISTORTING EXCESSIVELY.
   ELEMENT FINAL_PART-1.2498 IS DISTORTING EXCESSIVELY.
   ELEMENT FINAL_PART-1.2504 IS DISTORTING EXCESSIVELY.
   ELEMENT FINAL_PART-1.2505 IS DISTORTING EXCESSIVELY.
   ELEMENT FINAL_PART-1.2506 IS DISTORTING EXCESSIVELY.
   ELEMENT FINAL_PART-1.2507 IS DISTORTING EXCESSIVELY.
   ELEMENT FINAL_PART-1.2509 IS DISTORTING EXCESSIVELY.
   ELEMENT FINAL_PART-1.2511 IS DISTORTING EXCESSIVELY.
   ELEMENT FINAL_PART-1.2512 IS DISTORTING EXCESSIVELY.
   ELEMENT FINAL_PART-1.2514 IS DISTORTING EXCESSIVELY.
   ELEMENT FINAL_PART-1.2515 IS DISTORTING EXCESSIVELY.
   ELEMENT FINAL_PART-1.2516 IS DISTORTING EXCESSIVELY.
   ELEMENT FINAL_PART-1.2519 IS DISTORTING EXCESSIVELY.
   ELEMENT FINAL_PART-1.2520 IS DISTORTING EXCESSIVELY.
   ELEMENT FINAL_PART-1.2525 IS DISTORTING EXCESSIVELY.
   ELEMENT FINAL_PART-1.2526 IS DISTORTING EXCESSIVELY.
   ELEMENT FINAL_PART-1.2527 IS DISTORTING EXCESSIVELY.
   ELEMENT FINAL_PART-1.2534 IS DISTORTING EXCESSIVELY.
   ELEMENT FINAL_PART-1.2535 IS DISTORTING EXCESSIVELY.
   ELEMENT FINAL_PART-1.2537 IS DISTORTING EXCESSIVELY.
   ELEMENT FINAL_PART-1.2540 IS DISTORTING EXCESSIVELY.
   ELEMENT FINAL_PART-1.2541 IS DISTORTING EXCESSIVELY.
   ELEMENT FINAL_PART-1.2542 IS DISTORTING EXCESSIVELY.
   ELEMENT FINAL_PART-1.2543 IS DISTORTING EXCESSIVELY.
   ELEMENT FINAL_PART-1.2544 IS DISTORTING EXCESSIVELY.
   ELEMENT FINAL_PART-1.2546 IS DISTORTING EXCESSIVELY.
   ELEMENT FINAL_PART-1.2547 IS DISTORTING EXCESSIVELY.
   ELEMENT FINAL_PART-1.2548 IS DISTORTING EXCESSIVELY.
   ELEMENT FINAL_PART-1.2550 IS DISTORTING EXCESSIVELY.
   ELEMENT FINAL_PART-1.2551 IS DISTORTING EXCESSIVELY.
   ELEMENT FINAL_PART-1.2554 IS DISTORTING EXCESSIVELY.
   ELEMENT FINAL_PART-1.2556 IS DISTORTING EXCESSIVELY.
   ELEMENT FINAL_PART-1.2559 IS DISTORTING EXCESSIVELY.
   ELEMENT FINAL_PART-1.2560 IS DISTORTING EXCESSIVELY.
   ELEMENT FINAL_PART-1.2565 IS DISTORTING EXCESSIVELY.
   ELEMENT FINAL_PART-1.2566 IS DISTORTING EXCESSIVELY.
   ELEMENT FINAL_PART-1.2567 IS DISTORTING EXCESSIVELY.
   ELEMENT FINAL_PART-1.2569 IS DISTORTING EXCESSIVELY.
   ELEMENT FINAL_PART-1.2570 IS DISTORTING EXCESSIVELY.
   ELEMENT FINAL_PART-1.2571 IS DISTORTING EXCESSIVELY.
   ELEMENT FINAL_PART-1.2573 IS DISTORTING EXCESSIVELY.
   ELEMENT FINAL_PART-1.2574 IS DISTORTING EXCESSIVELY.
   ELEMENT FINAL_PART-1.2575 IS DISTORTING EXCESSIVELY.
   ELEMENT FINAL_PART-1.2577 IS DISTORTING EXCESSIVELY.
   ELEMENT FINAL_PART-1.2578 IS DISTORTING EXCESSIVELY.
   ELEMENT FINAL_PART-1.2580 IS DISTORTING EXCESSIVELY.
[...]
  CORRESPONDING RESIDUAL FORCE      1.598E-04
 LARGEST INCREMENT OF DISP.        -2.510E-03   AT NODE        215   DOF  1
   INSTANCE: FINAL_PART-1                                                                    
 LARGEST CORRECTION TO DISP.       -1.983E-06   AT NODE        215   DOF  1
   INSTANCE: FINAL_PART-1                                                                    
          THE FORCE     EQUILIBRIUM EQUATIONS HAVE CONVERGED

 ITERATION SUMMARY FOR THE INCREMENT:   6 TOTAL ITERATIONS, OF WHICH
   0 ARE SEVERE DISCONTINUITY ITERATIONS AND  6 ARE EQUILIBRIUM ITERATIONS.

 TIME INCREMENT COMPLETED  8.789E-03,  FRACTION OF STEP COMPLETED  0.979    
 STEP TIME COMPLETED       0.979    ,  TOTAL TIME COMPLETED        0.979    


  INCREMENT    36 STARTS. ATTEMPT NUMBER  1, TIME INCREMENT  8.789E-03
 
	SYMMETRIC PURE THREAD-BASED DIRECT SPARSE SOLVER RUNNING ON
 	1 HOST x 1 MPI RANK PER HOST x 1 THREAD PER RANK
        NUMBER OF EQUATIONS:  494706
        NUMBER OF RHS:        1
        NUMBER OF FLOPS:      1.131e+11
        SOLVER ELAPSED TIME:  6.5s

               CONVERGENCE CHECKS FOR EQUILIBRIUM ITERATION     1


 AVERAGE FORCE                      0.173       TIME AVG. FORCE       0.119    
 LARGEST SCALED RESIDUAL FORCE      0.535       AT NODE        849   DOF  1
   INSTANCE: FINAL_PART-1                                                                    
  CORRESPONDING RESIDUAL FORCE      0.535    
 LARGEST INCREMENT OF DISP.        -2.321E-03   AT NODE        215   DOF  1
   INSTANCE: FINAL_PART-1                                                                    
 LARGEST CORRECTION TO DISP.        2.344E-04   AT NODE        229   DOF  1
   INSTANCE: FINAL_PART-1                                                                    
          FORCE     EQUILIBRIUM NOT ACHIEVED WITHIN TOLERANCE.
 
	SYMMETRIC PURE THREAD-BASED DIRECT SPARSE SOLVER RUNNING ON
 	1 HOST x 1 MPI RANK PER HOST x 1 THREAD PER RANK
        NUMBER OF EQUATIONS:  494706
        NUMBER OF RHS:        1
        NUMBER OF FLOPS:      1.131e+11
        SOLVER ELAPSED TIME:  6.5s
 

 ***WARNING: THE SYSTEM MATRIX HAS 1 NEGATIVE EIGENVALUES.
             EXPLANATIONS ARE SUGGESTED AFTER THE FIRST OCCURRENCE OF THIS MESSAGE.

               CONVERGENCE CHECKS FOR EQUILIBRIUM ITERATION     2


 AVERAGE FORCE                      0.173       TIME AVG. FORCE       0.119    
 LARGEST SCALED RESIDUAL FORCE     -5.947E-02   AT NODE         14   DOF  2
   INSTANCE: FINAL_PART-1                                                                    
  CORRESPONDING RESIDUAL FORCE     -5.947E-02
 LARGEST INCREMENT OF DISP.        -2.355E-03   AT NODE        215   DOF  1
   INSTANCE: FINAL_PART-1                                                                    
 LARGEST CORRECTION TO DISP.       -3.889E-05   AT NODE         44   DOF  1
   INSTANCE: FINAL_PART-1                                                                    
          FORCE     EQUILIBRIUM NOT ACHIEVED WITHIN TOLERANCE.
 
	SYMMETRIC PURE THREAD-BASED DIRECT SPARSE SOLVER RUNNING ON
 	1 HOST x 1 MPI RANK PER HOST x 1 THREAD PER RANK
        NUMBER OF EQUATIONS:  494706
        NUMBER OF RHS:        1
        NUMBER OF FLOPS:      1.131e+11
        SOLVER ELAPSED TIME:  6.5s

               CONVERGENCE CHECKS FOR EQUILIBRIUM ITERATION     3


 AVERAGE FORCE                      0.173       TIME AVG. FORCE       0.119    
 LARGEST SCALED RESIDUAL FORCE     -3.850E-02   AT NODE        847   DOF  1
   INSTANCE: FINAL_PART-1                                                                    
  CORRESPONDING RESIDUAL FORCE     -3.850E-02
 LARGEST INCREMENT OF DISP.        -2.385E-03   AT NODE        215   DOF  1
   INSTANCE: FINAL_PART-1                                                                    
 LARGEST CORRECTION TO DISP.        3.847E-05   AT NODE        236   DOF  2
   INSTANCE: FINAL_PART-1                                                                    
          FORCE     EQUILIBRIUM NOT ACHIEVED WITHIN TOLERANCE.
 
	SYMMETRIC PURE THREAD-BASED DIRECT SPARSE SOLVER RUNNING ON
 	1 HOST x 1 MPI RANK PER HOST x 1 THREAD PER RANK
        NUMBER OF EQUATIONS:  494706
        NUMBER OF RHS:        1
        NUMBER OF FLOPS:      1.131e+11
        SOLVER ELAPSED TIME:  6.5s

               CONVERGENCE CHECKS FOR EQUILIBRIUM ITERATION     4


 AVERAGE FORCE                      0.173       TIME AVG. FORCE       0.119    
 LARGEST SCALED RESIDUAL FORCE     -1.012E-03   AT NODE        847   DOF  1
   INSTANCE: FINAL_PART-1                                                                    
  CORRESPONDING RESIDUAL FORCE     -1.012E-03
 LARGEST INCREMENT OF DISP.        -2.395E-03   AT NODE        215   DOF  1
   INSTANCE: FINAL_PART-1                                                                    
 LARGEST CORRECTION TO DISP.       -1.009E-05   AT NODE        215   DOF  1
   INSTANCE: FINAL_PART-1                                                                    
          FORCE     EQUILIBRIUM NOT ACHIEVED WITHIN TOLERANCE.
 
	SYMMETRIC PURE THREAD-BASED DIRECT SPARSE SOLVER RUNNING ON
 	1 HOST x 1 MPI RANK PER HOST x 1 THREAD PER RANK
        NUMBER OF EQUATIONS:  494706
        NUMBER OF RHS:        1
        NUMBER OF FLOPS:      1.131e+11
        SOLVER ELAPSED TIME:  6.6s

               CONVERGENCE CHECKS FOR EQUILIBRIUM ITERATION     5


 AVERAGE FORCE                      0.173       TIME AVG. FORCE       0.119    
 LARGEST SCALED RESIDUAL FORCE     -1.233E-02   AT NODE        847   DOF  1
   INSTANCE: FINAL_PART-1                                                                    
  CORRESPONDING RESIDUAL FORCE     -1.233E-02
 LARGEST INCREMENT OF DISP.        -2.429E-03   AT NODE        215   DOF  1
   INSTANCE: FINAL_PART-1                                                                    
 LARGEST CORRECTION TO DISP.       -3.369E-05   AT NODE        199   DOF  1
   INSTANCE: FINAL_PART-1                                                                    
          FORCE     EQUILIBRIUM NOT ACHIEVED WITHIN TOLERANCE.
 
	SYMMETRIC PURE THREAD-BASED DIRECT SPARSE SOLVER RUNNING ON
 	1 HOST x 1 MPI RANK PER HOST x 1 THREAD PER RANK
        NUMBER OF EQUATIONS:  494706
        NUMBER OF RHS:        1
        NUMBER OF FLOPS:      1.131e+11
        SOLVER ELAPSED TIME:  6.5s

               CONVERGENCE CHECKS FOR EQUILIBRIUM ITERATION     6


 AVERAGE FORCE                      0.173       TIME AVG. FORCE       0.119    
 LARGEST SCALED RESIDUAL FORCE      1.522E-04   AT NODE         12   DOF  2
   INSTANCE: FINAL_PART-1                                                                    
  CORRESPONDING RESIDUAL FORCE      1.522E-04
 LARGEST INCREMENT OF DISP.        -2.431E-03   AT NODE        215   DOF  1
   INSTANCE: FINAL_PART-1                                                                    
 LARGEST CORRECTION TO DISP.       -1.909E-06   AT NODE        215   DOF  1
   INSTANCE: FINAL_PART-1                                                                    
          THE FORCE     EQUILIBRIUM EQUATIONS HAVE CONVERGED

 ITERATION SUMMARY FOR THE INCREMENT:   6 TOTAL ITERATIONS, OF WHICH
   0 ARE SEVERE DISCONTINUITY ITERATIONS AND  6 ARE EQUILIBRIUM ITERATIONS.

 TIME INCREMENT COMPLETED  8.789E-03,  FRACTION OF STEP COMPLETED  0.988    
 STEP TIME COMPLETED       0.988    ,  TOTAL TIME COMPLETED        0.988    


  INCREMENT    37 STARTS. ATTEMPT NUMBER  1, TIME INCREMENT  8.789E-03
 
	SYMMETRIC PURE THREAD-BASED DIRECT SPARSE SOLVER RUNNING ON
 	1 HOST x 1 MPI RANK PER HOST x 1 THREAD PER RANK
        NUMBER OF EQUATIONS:  494706
        NUMBER OF RHS:        1
        NUMBER OF FLOPS:      1.131e+11
        SOLVER ELAPSED TIME:  6.6s

               CONVERGENCE CHECKS FOR EQUILIBRIUM ITERATION     1


 AVERAGE FORCE                      0.174       TIME AVG. FORCE       0.121    
 LARGEST SCALED RESIDUAL FORCE      0.535       AT NODE        849   DOF  1
   INSTANCE: FINAL_PART-1                                                                    
  CORRESPONDING RESIDUAL FORCE      0.535    
 LARGEST INCREMENT OF DISP.        -2.237E-03   AT NODE        215   DOF  1
   INSTANCE: FINAL_PART-1                                                                    
 LARGEST CORRECTION TO DISP.        2.264E-04   AT NODE        229   DOF  1
   INSTANCE: FINAL_PART-1                                                                    
          FORCE     EQUILIBRIUM NOT ACHIEVED WITHIN TOLERANCE.
 
	SYMMETRIC PURE THREAD-BASED DIRECT SPARSE SOLVER RUNNING ON
 	1 HOST x 1 MPI RANK PER HOST x 1 THREAD PER RANK
        NUMBER OF EQUATIONS:  494706
        NUMBER OF RHS:        1
        NUMBER OF FLOPS:      1.131e+11
        SOLVER ELAPSED TIME:  6.5s
 

 ***WARNING: THE SYSTEM MATRIX HAS 1 NEGATIVE EIGENVALUES.
             EXPLANATIONS ARE SUGGESTED AFTER THE FIRST OCCURRENCE OF THIS MESSAGE.

               CONVERGENCE CHECKS FOR EQUILIBRIUM ITERATION     2


 AVERAGE FORCE                      0.174       TIME AVG. FORCE       0.121    
 LARGEST SCALED RESIDUAL FORCE     -5.733E-02   AT NODE         14   DOF  2
   INSTANCE: FINAL_PART-1                                                                    
  CORRESPONDING RESIDUAL FORCE     -5.733E-02
 LARGEST INCREMENT OF DISP.        -2.270E-03   AT NODE        215   DOF  1
   INSTANCE: FINAL_PART-1                                                                    
 LARGEST CORRECTION TO DISP.       -3.834E-05   AT NODE         44   DOF  1
   INSTANCE: FINAL_PART-1                                                                    
          FORCE     EQUILIBRIUM NOT ACHIEVED WITHIN TOLERANCE.
 
	SYMMETRIC PURE THREAD-BASED DIRECT SPARSE SOLVER RUNNING ON
 	1 HOST x 1 MPI RANK PER HOST x 1 THREAD PER RANK
        NUMBER OF EQUATIONS:  494706
        NUMBER OF RHS:        1
        NUMBER OF FLOPS:      1.131e+11
        SOLVER ELAPSED TIME:  6.5s

               CONVERGENCE CHECKS FOR EQUILIBRIUM ITERATION     3


 AVERAGE FORCE                      0.174       TIME AVG. FORCE       0.121    
 LARGEST SCALED RESIDUAL FORCE     -3.851E-02   AT NODE        847   DOF  1
   INSTANCE: FINAL_PART-1                                                                    
  CORRESPONDING RESIDUAL FORCE     -3.851E-02
 LARGEST INCREMENT OF DISP.        -2.299E-03   AT NODE        215   DOF  1
   INSTANCE: FINAL_PART-1                                                                    
 LARGEST CORRECTION TO DISP.        3.659E-05   AT NODE        236   DOF  2
   INSTANCE: FINAL_PART-1                                                                    
          FORCE     EQUILIBRIUM NOT ACHIEVED WITHIN TOLERANCE.
 
	SYMMETRIC PURE THREAD-BASED DIRECT SPARSE SOLVER RUNNING ON
 	1 HOST x 1 MPI RANK PER HOST x 1 THREAD PER RANK
        NUMBER OF EQUATIONS:  494706
        NUMBER OF RHS:        1
        NUMBER OF FLOPS:      1.131e+11
        SOLVER ELAPSED TIME:  6.5s

               CONVERGENCE CHECKS FOR EQUILIBRIUM ITERATION     4


 AVERAGE FORCE                      0.174       TIME AVG. FORCE       0.121    
 LARGEST SCALED RESIDUAL FORCE     -9.434E-04   AT NODE        847   DOF  1
   INSTANCE: FINAL_PART-1                                                                    
  CORRESPONDING RESIDUAL FORCE     -9.434E-04
 LARGEST INCREMENT OF DISP.        -2.309E-03   AT NODE        215   DOF  1
   INSTANCE: FINAL_PART-1                                                                    
 LARGEST CORRECTION TO DISP.       -9.552E-06   AT NODE        215   DOF  1
   INSTANCE: FINAL_PART-1                                                                    
          FORCE     EQUILIBRIUM NOT ACHIEVED WITHIN TOLERANCE.
 
	SYMMETRIC PURE THREAD-BASED DIRECT SPARSE SOLVER RUNNING ON
 	1 HOST x 1 MPI RANK PER HOST x 1 THREAD PER RANK
        NUMBER OF EQUATIONS:  494706
        NUMBER OF RHS:        1
        NUMBER OF FLOPS:      1.131e+11
        SOLVER ELAPSED TIME:  6.5s

               CONVERGENCE CHECKS FOR EQUILIBRIUM ITERATION     5


 AVERAGE FORCE                      0.174       TIME AVG. FORCE       0.121    
 LARGEST SCALED RESIDUAL FORCE     -1.206E-02   AT NODE        847   DOF  1
   INSTANCE: FINAL_PART-1                                                                    
  CORRESPONDING RESIDUAL FORCE     -1.206E-02
 LARGEST INCREMENT OF DISP.        -2.340E-03   AT NODE        215   DOF  1
   INSTANCE: FINAL_PART-1                                                                    
 LARGEST CORRECTION TO DISP.       -3.150E-05   AT NODE        199   DOF  1
   INSTANCE: FINAL_PART-1                                                                    
          FORCE     EQUILIBRIUM NOT ACHIEVED WITHIN TOLERANCE.
 
	SYMMETRIC PURE THREAD-BASED DIRECT SPARSE SOLVER RUNNING ON
 	1 HOST x 1 MPI RANK PER HOST x 1 THREAD PER RANK
        NUMBER OF EQUATIONS:  494706
        NUMBER OF RHS:        1
        NUMBER OF FLOPS:      1.131e+11
        SOLVER ELAPSED TIME:  6.6s

               CONVERGENCE CHECKS FOR EQUILIBRIUM ITERATION     6


 AVERAGE FORCE                      0.174       TIME AVG. FORCE       0.121    
 LARGEST SCALED RESIDUAL FORCE      1.429E-04   AT NODE         12   DOF  2
   INSTANCE: FINAL_PART-1                                                                    
  CORRESPONDING RESIDUAL FORCE      1.429E-04
 LARGEST INCREMENT OF DISP.        -2.342E-03   AT NODE        215   DOF  1
   INSTANCE: FINAL_PART-1                                                                    
 LARGEST CORRECTION TO DISP.       -1.774E-06   AT NODE        215   DOF  1
   INSTANCE: FINAL_PART-1                                                                    
          THE FORCE     EQUILIBRIUM EQUATIONS HAVE CONVERGED

 ITERATION SUMMARY FOR THE INCREMENT:   6 TOTAL ITERATIONS, OF WHICH
   0 ARE SEVERE DISCONTINUITY ITERATIONS AND  6 ARE EQUILIBRIUM ITERATIONS.

 TIME INCREMENT COMPLETED  8.789E-03,  FRACTION OF STEP COMPLETED  0.997    
 STEP TIME COMPLETED       0.997    ,  TOTAL TIME COMPLETED        0.997    


  INCREMENT    38 STARTS. ATTEMPT NUMBER  1, TIME INCREMENT  2.930E-03
 
	SYMMETRIC PURE THREAD-BASED DIRECT SPARSE SOLVER RUNNING ON
 	1 HOST x 1 MPI RANK PER HOST x 1 THREAD PER RANK
        NUMBER OF EQUATIONS:  494706
        NUMBER OF RHS:        1
        NUMBER OF FLOPS:      1.131e+11
        SOLVER ELAPSED TIME:  6.5s

               CONVERGENCE CHECKS FOR EQUILIBRIUM ITERATION     1


 AVERAGE FORCE                      0.175       TIME AVG. FORCE       0.122    
 LARGEST SCALED RESIDUAL FORCE      2.478E-02   AT NODE          2   DOF  3
   INSTANCE: FINAL_PART-1                                                                    
  CORRESPONDING RESIDUAL FORCE      2.478E-02
 LARGEST INCREMENT OF DISP.        -7.368E-04   AT NODE        215   DOF  1
   INSTANCE: FINAL_PART-1                                                                    
 LARGEST CORRECTION TO DISP.        4.902E-05   AT NODE        229   DOF  1
   INSTANCE: FINAL_PART-1                                                                    
          FORCE     EQUILIBRIUM NOT ACHIEVED WITHIN TOLERANCE.
 
	SYMMETRIC PURE THREAD-BASED DIRECT SPARSE SOLVER RUNNING ON
 	1 HOST x 1 MPI RANK PER HOST x 1 THREAD PER RANK
        NUMBER OF EQUATIONS:  494706
        NUMBER OF RHS:        1
        NUMBER OF FLOPS:      1.131e+11
        SOLVER ELAPSED TIME:  6.5s
 

 ***WARNING: THE SYSTEM MATRIX HAS 1 NEGATIVE EIGENVALUES.
             EXPLANATIONS ARE SUGGESTED AFTER THE FIRST OCCURRENCE OF THIS MESSAGE.

               CONVERGENCE CHECKS FOR EQUILIBRIUM ITERATION     2


 AVERAGE FORCE                      0.175       TIME AVG. FORCE       0.122    
 LARGEST SCALED RESIDUAL FORCE     -6.362E-03   AT NODE         14   DOF  2
   INSTANCE: FINAL_PART-1                                                                    
  CORRESPONDING RESIDUAL FORCE     -6.362E-03
 LARGEST INCREMENT OF DISP.        -7.240E-04   AT NODE        215   DOF  1
   INSTANCE: FINAL_PART-1                                                                    
 LARGEST CORRECTION TO DISP.        1.281E-05   AT NODE       5436   DOF  1
   INSTANCE: FINAL_PART-1                                                                    
          FORCE     EQUILIBRIUM NOT ACHIEVED WITHIN TOLERANCE.
 
	SYMMETRIC PURE THREAD-BASED DIRECT SPARSE SOLVER RUNNING ON
 	1 HOST x 1 MPI RANK PER HOST x 1 THREAD PER RANK
        NUMBER OF EQUATIONS:  494706
        NUMBER OF RHS:        1
        NUMBER OF FLOPS:      1.131e+11
        SOLVER ELAPSED TIME:  6.6s

               CONVERGENCE CHECKS FOR EQUILIBRIUM ITERATION     3


 AVERAGE FORCE                      0.175       TIME AVG. FORCE       0.122    
 LARGEST SCALED RESIDUAL FORCE     -8.007E-03   AT NODE        847   DOF  1
   INSTANCE: FINAL_PART-1                                                                    
  CORRESPONDING RESIDUAL FORCE     -8.007E-03
 LARGEST INCREMENT OF DISP.        -7.492E-04   AT NODE        215   DOF  1
   INSTANCE: FINAL_PART-1                                                                    
 LARGEST CORRECTION TO DISP.       -2.528E-05   AT NODE        215   DOF  1
   INSTANCE: FINAL_PART-1                                                                    
          FORCE     EQUILIBRIUM NOT ACHIEVED WITHIN TOLERANCE.
 
	SYMMETRIC PURE THREAD-BASED DIRECT SPARSE SOLVER RUNNING ON
 	1 HOST x 1 MPI RANK PER HOST x 1 THREAD PER RANK
        NUMBER OF EQUATIONS:  494706
        NUMBER OF RHS:        1
        NUMBER OF FLOPS:      1.131e+11
        SOLVER ELAPSED TIME:  6.6s

               CONVERGENCE CHECKS FOR EQUILIBRIUM ITERATION     4


 AVERAGE FORCE                      0.175       TIME AVG. FORCE       0.122    
 LARGEST SCALED RESIDUAL FORCE     -4.259E-04   AT NODE        847   DOF  1
   INSTANCE: FINAL_PART-1                                                                    
  CORRESPONDING RESIDUAL FORCE     -4.259E-04
 LARGEST INCREMENT OF DISP.        -7.550E-04   AT NODE        215   DOF  1
   INSTANCE: FINAL_PART-1                                                                    
 LARGEST CORRECTION TO DISP.       -5.716E-06   AT NODE        215   DOF  1
   INSTANCE: FINAL_PART-1                                                                    
          THE FORCE     EQUILIBRIUM EQUATIONS HAVE CONVERGED

 ITERATION SUMMARY FOR THE INCREMENT:   4 TOTAL ITERATIONS, OF WHICH
   0 ARE SEVERE DISCONTINUITY ITERATIONS AND  4 ARE EQUILIBRIUM ITERATIONS.

 TIME INCREMENT COMPLETED  2.930E-03,  FRACTION OF STEP COMPLETED   1.00    
 STEP TIME COMPLETED        1.00    ,  TOTAL TIME COMPLETED         1.00    


          THE ANALYSIS HAS BEEN COMPLETED



     ANALYSIS SUMMARY:
     TOTAL OF         38  INCREMENTS
                       4  CUTBACKS IN AUTOMATIC INCREMENTATION
                     249  ITERATIONS INCLUDING CONTACT ITERATIONS IF PRESENT
                     249  PASSES THROUGH THE EQUATION SOLVER OF WHICH 
                     249  INVOLVE MATRIX DECOMPOSITION, INCLUDING
                       0  DECOMPOSITION(S) OF THE MASS MATRIX
                       1  REORDERING OF EQUATIONS TO MINIMIZE WAVEFRONT
                       0  ADDITIONAL RESIDUAL EVALUATIONS FOR LINE SEARCHES
                       0  ADDITIONAL OPERATOR EVALUATIONS FOR LINE SEARCHES
                       1  WARNING MESSAGES DURING USER INPUT PROCESSING
                      45  WARNING MESSAGES DURING ANALYSIS
                       0  ANALYSIS WARNINGS ARE NUMERICAL PROBLEM MESSAGES
                      42  ANALYSIS WARNINGS ARE NEGATIVE EIGENVALUE MESSAGES
                       0  ERROR MESSAGES



     JOB TIME SUMMARY
       USER TIME (SEC)      =     1.28E+04
       SYSTEM TIME (SEC)    =     1.19E+03
       TOTAL CPU TIME (SEC) =     1.40E+04
       WALLCLOCK TIME (SEC) =         3345
       MEMORY PEAK (GB)     =            0
