 Abaqus/Standard 2025                  DATE 24-Feb-2026 TIME 17:36:56
 SUMMARY OF JOB INFORMATION:
 STEP  INC ATT SEVERE EQUIL TOTAL  TOTAL      STEP       INC OF       DOF    IF
               DISCON ITERS ITERS  TIME/    TIME/LPF    TIME/LPF    MONITOR RIKS
               ITERS               FREQ
   1     1   1U    0     2     2  0.00       0.00       1.000     
   1     1   2U    0     3     3  0.00       0.00       0.2500    
   1     1   3     0     8     8  0.0625     0.0625     0.06250   
   1     2   1     0     5     5  0.125      0.125      0.06250   
   1     3   1     0     5     5  0.188      0.188      0.06250   
   1     4   1     0     5     5  0.250      0.250      0.06250   
   1     5   1     0     5     5  0.312      0.312      0.06250   
   1     6   1     0     4     4  0.375      0.375      0.06250   
   1     7   1     0     5     5  0.438      0.438      0.06250   
   1     8   1     0     5     5  0.500      0.500      0.06250   
   1     9   1     0     5     5  0.562      0.562      0.06250   
   1    10   1     0     5     5  0.625      0.625      0.06250   
   1    11   1     0     7     7  0.688      0.688      0.06250   
   1    12   1     0     9     9  0.750      0.750      0.06250   
   1    13   1     0     8     8  0.812      0.812      0.06250   
   1    14   1U    0     5     5  0.812      0.812      0.06250   
   1    14   2     0     4     4  0.828      0.828      0.01562   
   1    15   1     0     4     4  0.844      0.844      0.01562   
   1    16   1     0     5     5  0.867      0.867      0.02344   
   1    17   1     0     8     8  0.891      0.891      0.02344   
   1    18   1     0     9     9  0.914      0.914      0.02344   
   1    19   1     0    10    10  0.938      0.938      0.02344   
   1    20   1     0     9     9  0.961      0.961      0.02344   
   1    21   1U    0     9     9  0.961      0.961      0.02344   
   1    21   2     0     6     6  0.973      0.973      0.01172   
   1    22   1     0     6     6  0.984      0.984      0.01172   
   1    23   1     0     6     6  0.996      0.996      0.01172   
   1    24   1     0     4     4  1.00       1.00       0.003906  
                          
 THE ANALYSIS HAS COMPLETED SUCCESSFULLY
