 Abaqus/Standard 2025                  DATE 25-Feb-2026 TIME 13:23:33
 SUMMARY OF JOB INFORMATION:
 STEP  INC ATT SEVERE EQUIL TOTAL  TOTAL      STEP       INC OF       DOF    IF
               DISCON ITERS ITERS  TIME/    TIME/LPF    TIME/LPF    MONITOR RIKS
               ITERS               FREQ
   1     1   1U    0     2     2  0.00       0.00       1.000     
   1     1   2U    0     3     3  0.00       0.00       0.2500    
   1     1   3     0    10    10  0.0625     0.0625     0.06250   
   1     2   1     0     5     5  0.125      0.125      0.06250   
   1     3   1     0     5     5  0.188      0.188      0.06250   
   1     4   1     0     5     5  0.250      0.250      0.06250   
   1     5   1     0     5     5  0.312      0.312      0.06250   
   1     6   1     0     5     5  0.375      0.375      0.06250   
   1     7   1     0     6     6  0.438      0.438      0.06250   
   1     8   1U    0     5     5  0.438      0.438      0.06250   
   1     8   2     0     3     3  0.453      0.453      0.01562   
   1     9   1     0     3     3  0.469      0.469      0.01562   
   1    10   1     0     4     4  0.492      0.492      0.02344   
   1    11   1     0     4     4  0.527      0.527      0.03516   
   1    12   1     0     8     8  0.580      0.580      0.05273   
   1    13   1     0    10    10  0.633      0.633      0.05273   
   1    14   1U    0     9     9  0.633      0.633      0.05273   
   1    14   2     0     8     8  0.659      0.659      0.02637   
   1    15   1     0    10    10  0.686      0.686      0.02637   
   1    16   1     0    12    12  0.712      0.712      0.02637   
   1    17   1     0    10    10  0.732      0.732      0.01978   
   1    18   1U    0     6     6  0.732      0.732      0.01978   
   1    18   2     0     4     4  0.737      0.737      0.004944  
   1    19   1     0     4     4  0.742      0.742      0.004944  
   1    20   1     0     4     4  0.749      0.749      0.007416  
   1    21   1     0     6     6  0.760      0.760      0.01112   
   1    22   1     0     8     8  0.771      0.771      0.01112   
   1    23   1     0     8     8  0.782      0.782      0.01112   
   1    24   1     0    10    10  0.793      0.793      0.01112   
   1    25   1     0     8     8  0.805      0.805      0.01112   
   1    26   1     0     7     7  0.816      0.816      0.01112   
   1    27   1     0     7     7  0.827      0.827      0.01112   
   1    28   1     0     8     8  0.838      0.838      0.01112   
   1    29   1U    0     9     9  0.838      0.838      0.01112   
   1    29   2     0     4     4  0.844      0.844      0.005562  
   1    30   1     0     4     4  0.849      0.849      0.005562  
   1    31   1     0     6     6  0.857      0.857      0.008343  
   1    32   1     0     6     6  0.866      0.866      0.008343  
   1    33   1     0     6     6  0.874      0.874      0.008343  
   1    34   1     0     6     6  0.882      0.882      0.008343  
   1    35   1     0     6     6  0.891      0.891      0.008343  
   1    36   1     0     6     6  0.899      0.899      0.008343  
   1    37   1     0     6     6  0.908      0.908      0.008343  
   1    38   1     0     6     6  0.916      0.916      0.008343  
   1    39   1     0     6     6  0.924      0.924      0.008343  
   1    40   1     0     6     6  0.933      0.933      0.008343  
   1    41   1     0     6     6  0.941      0.941      0.008343  
   1    42   1     0     6     6  0.949      0.949      0.008343  
   1    43   1     0     6     6  0.958      0.958      0.008343  
   1    44   1     0     6     6  0.966      0.966      0.008343  
   1    45   1     0     6     6  0.974      0.974      0.008343  
   1    46   1     0     6     6  0.983      0.983      0.008343  
   1    47   1     0     4     4  0.991      0.991      0.008343  
   1    48   1     0     6     6  0.999      0.999      0.008343  
   1    49   1     0     2     2  1.00       1.00       0.0007248 
                          
 THE ANALYSIS HAS COMPLETED SUCCESSFULLY
