1

   Abaqus 2025                                  Date 25-Feb-2026   Time 12:04:16
   For use by UNIVERSITAET STUTTGART under license from Dassault Systemes or its subsidiary.

                                                                                 
                                                                                 
 STEP    1     INCREMENT     1     STEP TIME    0.00    


                        S T E P       1     S T A T I C   A N A L Y S I S


                                                                                          

     AUTOMATIC TIME CONTROL WITH -
          A SUGGESTED INITIAL TIME INCREMENT OF                 1.00    
          AND A TOTAL TIME PERIOD OF                            1.00    
          THE MINIMUM TIME INCREMENT ALLOWED IS                1.000E-05
          THE MAXIMUM TIME INCREMENT ALLOWED IS                 1.00    

     LINEAR EQUATION SOLVER TYPE         DIRECT SPARSE

 CONVERGENCE TOLERANCE PARAMETERS FOR FORCE    
     CRITERION FOR RESIDUAL FORCE     FOR A NONLINEAR PROBLEM          5.000E-03
     CRITERION FOR DISP.    CORRECTION IN A NONLINEAR PROBLEM          1.000E-02
     INITIAL VALUE OF TIME AVERAGE FORCE                               1.000E-02
     AVERAGE FORCE     IS TIME AVERAGE FORCE    
     ALTERNATE CRIT. FOR RESIDUAL FORCE     FOR A NONLINEAR PROBLEM    2.000E-02
     CRITERION FOR ZERO FORCE     RELATIVE TO TIME AVRG. FORCE         1.000E-05
     CRITERION FOR RESIDUAL FORCE     WHEN THERE IS ZERO FLUX          1.000E-05
     CRITERION FOR DISP.    CORRECTION WHEN THERE IS ZERO FLUX         1.000E-03
     CRITERION FOR RESIDUAL FORCE     FOR A LINEAR INCREMENT           1.000E-08
     FIELD CONVERSION RATIO                                             1.00    
     CRITERION FOR ZERO FORCE     REL. TO TIME AVRG. MAX. FORCE        1.000E-05
     CRITERION FOR ZERO DISP.    RELATIVE TO CHARACTERISTIC LENGTH     1.000E-08

     VOLUMETRIC STRAIN COMPATIBILITY TOLERANCE FOR HYBRID SOLIDS       1.000E-05
     AXIAL STRAIN COMPATIBILITY TOLERANCE FOR HYBRID BEAMS             1.000E-05
     TRANS. SHEAR STRAIN COMPATIBILITY TOLERANCE FOR HYBRID BEAMS      1.000E-05
     SOFT CONTACT CONSTRAINT COMPATIBILITY TOLERANCE FOR P>P0          5.000E-03
     SOFT CONTACT CONSTRAINT COMPATIBILITY TOLERANCE FOR P=0.0         0.100    
     CONTACT FORCE ERROR TOLERANCE FOR CONVERT SDI=YES                 1.00    
     DISPLACEMENT COMPATIBILITY TOLERANCE FOR DCOUP ELEMENTS           1.000E-05
     ROTATION COMPATIBILITY TOLERANCE FOR DCOUP ELEMENTS               1.000E-05

 EQUILIBRIUM WILL BE CHECKED FOR SEVERE DISCONTINUITY ITERATIONS

 TIME INCREMENTATION CONTROL PARAMETERS:
     FIRST EQUILIBRIUM ITERATION FOR CONSECUTIVE DIVERGENCE CHECK              4
     EQUILIBRIUM ITERATION AT WHICH LOG. CONVERGENCE RATE CHECK BEGINS         8
     EQUILIBRIUM ITERATION AFTER WHICH ALTERNATE RESIDUAL IS USED              9
     MAXIMUM EQUILIBRIUM ITERATIONS ALLOWED                                   16
     EQUILIBRIUM ITERATION COUNT FOR CUT-BACK IN NEXT INCREMENT               10
     MAXIMUM EQUILIB. ITERS IN TWO INCREMENTS FOR TIME INCREMENT INCREASE      4
     MAXIMUM ITERATIONS FOR SEVERE DISCONTINUITIES                            50
     MAXIMUM ATTEMPTS ALLOWED IN AN INCREMENT                                  5
     MAXIMUM DISCON. ITERS IN TWO INCREMENTS FOR TIME INCREMENT INCREASE      50
     MAXIMUM CONTACT AUGMENTATIONS FOR *SURFACE BEHAVIOR,AUGMENTED LAGRANGE   50
     CUT-BACK FACTOR AFTER DIVERGENCE                                 0.2500    
     CUT-BACK FACTOR FOR TOO SLOW CONVERGENCE                         0.5000    
     CUT-BACK FACTOR AFTER TOO MANY EQUILIBRIUM ITERATIONS            0.7500    
     CUT-BACK FACTOR AFTER TOO MANY SEVERE DISCONTINUITY ITERATIONS   0.2500    
     CUT-BACK FACTOR AFTER PROBLEMS IN ELEMENT ASSEMBLY               0.2500    
     INCREASE FACTOR AFTER TWO INCREMENTS THAT CONVERGE QUICKLY        1.500    
     MAX. TIME INCREMENT INCREASE FACTOR ALLOWED                       1.500    
     MAX. TIME INCREMENT INCREASE FACTOR ALLOWED (DYNAMICS)            1.250    
     MAX. TIME INCREMENT INCREASE FACTOR ALLOWED (DIFFUSION)           2.000    
     MINIMUM TIME INCREMENT RATIO FOR EXTRAPOLATION TO OCCUR          0.1000    
     MAX. RATIO OF TIME INCREMENT TO STABILITY LIMIT                   1.000    
     FRACTION OF STABILITY LIMIT FOR NEW TIME INCREMENT               0.9500    
     TIME INCREMENT INCREASE FACTOR BEFORE A TIME POINT                1.000    
     GLOBAL STABILIZATION CONTROL IS NOT USED

          PRINT OF INCREMENT NUMBER, TIME, ETC., EVERY    1  INCREMENTS

     THE MAXIMUM NUMBER OF INCREMENTS IN THIS STEP IS                     100

          LARGE DISPLACEMENT THEORY WILL BE USED

     LINEAR EXTRAPOLATION WILL BE USED

     CHARACTERISTIC ELEMENT LENGTH     4.346E-04

     DETAILS REGARDING ACTUAL SOLUTION WAVEFRONT REQUESTED

     DETAILED OUTPUT OF DIAGNOSTICS TO DATABASE REQUESTED

     PRINT OF INCREMENT NUMBER, TIME, ETC., TO THE MESSAGE FILE EVERY     1  INCREMENTS

     COLLECTING MODEL CONSTRAINT INFORMATION FOR OVERCONSTRAINT CHECKS

     COLLECTING STEP CONSTRAINT INFORMATION FOR OVERCONSTRAINT CHECKS


  INCREMENT     1 STARTS. ATTEMPT NUMBER  1, TIME INCREMENT   1.00    
 
	SYMMETRIC PURE THREAD-BASED DIRECT SPARSE SOLVER RUNNING ON
 	1 HOST x 1 MPI RANK PER HOST x 1 THREAD PER RANK
        NUMBER OF EQUATIONS:  494706
        NUMBER OF RHS:        1
        NUMBER OF FLOPS:      1.131e+11
        SOLVER ELAPSED TIME:  4.9s

               CONVERGENCE CHECKS FOR EQUILIBRIUM ITERATION     1


 AVERAGE FORCE                       429.       TIME AVG. FORCE        429.    
 LARGEST SCALED RESIDUAL FORCE      2.383E+04   AT NODE       3890   DOF  1
   INSTANCE: FINAL_PART-1                                                                    
  CORRESPONDING RESIDUAL FORCE      2.383E+04
 LARGEST INCREMENT OF DISP.        -9.201E-02   AT NODE      10604   DOF  3
   INSTANCE: FINAL_PART-1                                                                    
 LARGEST CORRECTION TO DISP.       -9.201E-02   AT NODE      10604   DOF  3
   INSTANCE: FINAL_PART-1                                                                    
          FORCE     EQUILIBRIUM NOT ACHIEVED WITHIN TOLERANCE.
 
	SYMMETRIC PURE THREAD-BASED DIRECT SPARSE SOLVER RUNNING ON
 	1 HOST x 1 MPI RANK PER HOST x 1 THREAD PER RANK
        NUMBER OF EQUATIONS:  494706
        NUMBER OF RHS:        1
        NUMBER OF FLOPS:      1.131e+11
        SOLVER ELAPSED TIME:  6.7s
 

 ***WARNING: THE SYSTEM MATRIX HAS 106982 NEGATIVE EIGENVALUES.

     NEGATIVE EIGENVALUES MEAN THAT THE SYSTEM MATRIX IS NOT 
     POSITIVE DEFINITE:
     FOR EXAMPLE, A BIFURCATION (BUCKLING) LOAD MAY HAVE BEEN EXCEEDED.
   ELEMENT FINAL_PART-1.1 IS DISTORTING EXCESSIVELY.
   ELEMENT FINAL_PART-1.2 IS DISTORTING EXCESSIVELY.
   ELEMENT FINAL_PART-1.4 IS DISTORTING EXCESSIVELY.
   ELEMENT FINAL_PART-1.8 IS DISTORTING EXCESSIVELY.
   ELEMENT FINAL_PART-1.9 IS DISTORTING EXCESSIVELY.
   ELEMENT FINAL_PART-1.11 IS DISTORTING EXCESSIVELY.
   ELEMENT FINAL_PART-1.12 IS DISTORTING EXCESSIVELY.
   ELEMENT FINAL_PART-1.14 IS DISTORTING EXCESSIVELY.
   ELEMENT FINAL_PART-1.17 IS DISTORTING EXCESSIVELY.
   ELEMENT FINAL_PART-1.19 IS DISTORTING EXCESSIVELY.
   ELEMENT FINAL_PART-1.21 IS DISTORTING EXCESSIVELY.
   ELEMENT FINAL_PART-1.24 IS DISTORTING EXCESSIVELY.
   ELEMENT FINAL_PART-1.25 IS DISTORTING EXCESSIVELY.
   ELEMENT FINAL_PART-1.31 IS DISTORTING EXCESSIVELY.
   ELEMENT FINAL_PART-1.34 IS DISTORTING EXCESSIVELY.
   ELEMENT FINAL_PART-1.36 IS DISTORTING EXCESSIVELY.
   ELEMENT FINAL_PART-1.38 IS DISTORTING EXCESSIVELY.
   ELEMENT FINAL_PART-1.39 IS DISTORTING EXCESSIVELY.
   ELEMENT FINAL_PART-1.40 IS DISTORTING EXCESSIVELY.
   ELEMENT FINAL_PART-1.41 IS DISTORTING EXCESSIVELY.
   ELEMENT FINAL_PART-1.43 IS DISTORTING EXCESSIVELY.
   ELEMENT FINAL_PART-1.44 IS DISTORTING EXCESSIVELY.
   ELEMENT FINAL_PART-1.45 IS DISTORTING EXCESSIVELY.
   ELEMENT FINAL_PART-1.46 IS DISTORTING EXCESSIVELY.
   ELEMENT FINAL_PART-1.48 IS DISTORTING EXCESSIVELY.
   ELEMENT FINAL_PART-1.53 IS DISTORTING EXCESSIVELY.
   ELEMENT FINAL_PART-1.57 IS DISTORTING EXCESSIVELY.
   ELEMENT FINAL_PART-1.58 IS DISTORTING EXCESSIVELY.
   ELEMENT FINAL_PART-1.61 IS DISTORTING EXCESSIVELY.
   ELEMENT FINAL_PART-1.62 IS DISTORTING EXCESSIVELY.
   ELEMENT FINAL_PART-1.65 IS DISTORTING EXCESSIVELY.
   ELEMENT FINAL_PART-1.68 IS DISTORTING EXCESSIVELY.
   ELEMENT FINAL_PART-1.69 IS DISTORTING EXCESSIVELY.
   ELEMENT FINAL_PART-1.72 IS DISTORTING EXCESSIVELY.
   ELEMENT FINAL_PART-1.74 IS DISTORTING EXCESSIVELY.
   ELEMENT FINAL_PART-1.77 IS DISTORTING EXCESSIVELY.
   ELEMENT FINAL_PART-1.78 IS DISTORTING EXCESSIVELY.
   ELEMENT FINAL_PART-1.79 IS DISTORTING EXCESSIVELY.
   ELEMENT FINAL_PART-1.80 IS DISTORTING EXCESSIVELY.
   ELEMENT FINAL_PART-1.81 IS DISTORTING EXCESSIVELY.
   ELEMENT FINAL_PART-1.83 IS DISTORTING EXCESSIVELY.
   ELEMENT FINAL_PART-1.84 IS DISTORTING EXCESSIVELY.
   ELEMENT FINAL_PART-1.85 IS DISTORTING EXCESSIVELY.
   ELEMENT FINAL_PART-1.86 IS DISTORTING EXCESSIVELY.
   ELEMENT FINAL_PART-1.88 IS DISTORTING EXCESSIVELY.
   ELEMENT FINAL_PART-1.89 IS DISTORTING EXCESSIVELY.
   ELEMENT FINAL_PART-1.91 IS DISTORTING EXCESSIVELY.
   ELEMENT FINAL_PART-1.92 IS DISTORTING EXCESSIVELY.
   ELEMENT FINAL_PART-1.94 IS DISTORTING EXCESSIVELY.
   ELEMENT FINAL_PART-1.95 IS DISTORTING EXCESSIVELY.
   ELEMENT FINAL_PART-1.96 IS DISTORTING EXCESSIVELY.
   ELEMENT FINAL_PART-1.98 IS DISTORTING EXCESSIVELY.
   ELEMENT FINAL_PART-1.100 IS DISTORTING EXCESSIVELY.
   ELEMENT FINAL_PART-1.101 IS DISTORTING EXCESSIVELY.
   ELEMENT FINAL_PART-1.102 IS DISTORTING EXCESSIVELY.
   ELEMENT FINAL_PART-1.104 IS DISTORTING EXCESSIVELY.
   ELEMENT FINAL_PART-1.105 IS DISTORTING EXCESSIVELY.
   ELEMENT FINAL_PART-1.108 IS DISTORTING EXCESSIVELY.
   ELEMENT FINAL_PART-1.109 IS DISTORTING EXCESSIVELY.
   ELEMENT FINAL_PART-1.110 IS DISTORTING EXCESSIVELY.
   ELEMENT FINAL_PART-1.111 IS DISTORTING EXCESSIVELY.
   ELEMENT FINAL_PART-1.113 IS DISTORTING EXCESSIVELY.
   ELEMENT FINAL_PART-1.117 IS DISTORTING EXCESSIVELY.
   ELEMENT FINAL_PART-1.120 IS DISTORTING EXCESSIVELY.
   ELEMENT FINAL_PART-1.123 IS DISTORTING EXCESSIVELY.
   ELEMENT FINAL_PART-1.124 IS DISTORTING EXCESSIVELY.
   ELEMENT FINAL_PART-1.125 IS DISTORTING EXCESSIVELY.
   ELEMENT FINAL_PART-1.126 IS DISTORTING EXCESSIVELY.
   ELEMENT FINAL_PART-1.129 IS DISTORTING EXCESSIVELY.
   ELEMENT FINAL_PART-1.130 IS DISTORTING EXCESSIVELY.
   ELEMENT FINAL_PART-1.131 IS DISTORTING EXCESSIVELY.
   ELEMENT FINAL_PART-1.132 IS DISTORTING EXCESSIVELY.
   ELEMENT FINAL_PART-1.133 IS DISTORTING EXCESSIVELY.
   ELEMENT FINAL_PART-1.138 IS DISTORTING EXCESSIVELY.
   ELEMENT FINAL_PART-1.139 IS DISTORTING EXCESSIVELY.
   ELEMENT FINAL_PART-1.140 IS DISTORTING EXCESSIVELY.
   ELEMENT FINAL_PART-1.141 IS DISTORTING EXCESSIVELY.
   ELEMENT FINAL_PART-1.145 IS DISTORTING EXCESSIVELY.
   ELEMENT FINAL_PART-1.146 IS DISTORTING EXCESSIVELY.
   ELEMENT FINAL_PART-1.147 IS DISTORTING EXCESSIVELY.
   ELEMENT FINAL_PART-1.151 IS DISTORTING EXCESSIVELY.
   ELEMENT FINAL_PART-1.152 IS DISTORTING EXCESSIVELY.
   ELEMENT FINAL_PART-1.154 IS DISTORTING EXCESSIVELY.
   ELEMENT FINAL_PART-1.155 IS DISTORTING EXCESSIVELY.
   ELEMENT FINAL_PART-1.159 IS DISTORTING EXCESSIVELY.
   ELEMENT FINAL_PART-1.160 IS DISTORTING EXCESSIVELY.
   ELEMENT FINAL_PART-1.161 IS DISTORTING EXCESSIVELY.
   ELEMENT FINAL_PART-1.162 IS DISTORTING EXCESSIVELY.
   ELEMENT FINAL_PART-1.163 IS DISTORTING EXCESSIVELY.
   ELEMENT FINAL_PART-1.164 IS DISTORTING EXCESSIVELY.
   ELEMENT FINAL_PART-1.165 IS DISTORTING EXCESSIVELY.
   ELEMENT FINAL_PART-1.167 IS DISTORTING EXCESSIVELY.
   ELEMENT FINAL_PART-1.168 IS DISTORTING EXCESSIVELY.
   ELEMENT FINAL_PART-1.173 IS DISTORTING EXCESSIVELY.
   ELEMENT FINAL_PART-1.174 IS DISTORTING EXCESSIVELY.
   ELEMENT FINAL_PART-1.175 IS DISTORTING EXCESSIVELY.
   ELEMENT FINAL_PART-1.179 IS DISTORTING EXCESSIVELY.
   ELEMENT FINAL_PART-1.180 IS DISTORTING EXCESSIVELY.
   ELEMENT FINAL_PART-1.181 IS DISTORTING EXCESSIVELY.
   ELEMENT FINAL_PART-1.183 IS DISTORTING EXCESSIVELY.
   ELEMENT FINAL_PART-1.187 IS DISTORTING EXCESSIVELY.
   ELEMENT FINAL_PART-1.190 IS DISTORTING EXCESSIVELY.
   ELEMENT FINAL_PART-1.191 IS DISTORTING EXCESSIVELY.
   ELEMENT FINAL_PART-1.205 IS DISTORTING EXCESSIVELY.
   ELEMENT FINAL_PART-1.206 IS DISTORTING EXCESSIVELY.
   ELEMENT FINAL_PART-1.208 IS DISTORTING EXCESSIVELY.
   ELEMENT FINAL_PART-1.210 IS DISTORTING EXCESSIVELY.
   ELEMENT FINAL_PART-1.214 IS DISTORTING EXCESSIVELY.
   ELEMENT FINAL_PART-1.217 IS DISTORTING EXCESSIVELY.
   ELEMENT FINAL_PART-1.220 IS DISTORTING EXCESSIVELY.
   ELEMENT FINAL_PART-1.221 IS DISTORTING EXCESSIVELY.
   ELEMENT FINAL_PART-1.222 IS DISTORTING EXCESSIVELY.
   ELEMENT FINAL_PART-1.223 IS DISTORTING EXCESSIVELY.
   ELEMENT FINAL_PART-1.224 IS DISTORTING EXCESSIVELY.
   ELEMENT FINAL_PART-1.225 IS DISTORTING EXCESSIVELY.
   ELEMENT FINAL_PART-1.227 IS DISTORTING EXCESSIVELY.
   ELEMENT FINAL_PART-1.229 IS DISTORTING EXCESSIVELY.
   ELEMENT FINAL_PART-1.234 IS DISTORTING EXCESSIVELY.
   ELEMENT FINAL_PART-1.236 IS DISTORTING EXCESSIVELY.
   ELEMENT FINAL_PART-1.238 IS DISTORTING EXCESSIVELY.
   ELEMENT FINAL_PART-1.240 IS DISTORTING EXCESSIVELY.
   ELEMENT FINAL_PART-1.243 IS DISTORTING EXCESSIVELY.
   ELEMENT FINAL_PART-1.245 IS DISTORTING EXCESSIVELY.
   ELEMENT FINAL_PART-1.249 IS DISTORTING EXCESSIVELY.
   ELEMENT FINAL_PART-1.250 IS DISTORTING EXCESSIVELY.
   ELEMENT FINAL_PART-1.251 IS DISTORTING EXCESSIVELY.
   ELEMENT FINAL_PART-1.252 IS DISTORTING EXCESSIVELY.
   ELEMENT FINAL_PART-1.256 IS DISTORTING EXCESSIVELY.
   ELEMENT FINAL_PART-1.257 IS DISTORTING EXCESSIVELY.
   ELEMENT FINAL_PART-1.258 IS DISTORTING EXCESSIVELY.
   ELEMENT FINAL_PART-1.261 IS DISTORTING EXCESSIVELY.
   ELEMENT FINAL_PART-1.262 IS DISTORTING EXCESSIVELY.
   ELEMENT FINAL_PART-1.264 IS DISTORTING EXCESSIVELY.
   ELEMENT FINAL_PART-1.266 IS DISTORTING EXCESSIVELY.
   ELEMENT FINAL_PART-1.267 IS DISTORTING EXCESSIVELY.
   ELEMENT FINAL_PART-1.268 IS DISTORTING EXCESSIVELY.
   ELEMENT FINAL_PART-1.269 IS DISTORTING EXCESSIVELY.
   ELEMENT FINAL_PART-1.270 IS DISTORTING EXCESSIVELY.
   ELEMENT FINAL_PART-1.273 IS DISTORTING EXCESSIVELY.
   ELEMENT FINAL_PART-1.274 IS DISTORTING EXCESSIVELY.
   ELEMENT FINAL_PART-1.275 IS DISTORTING EXCESSIVELY.
   ELEMENT FINAL_PART-1.278 IS DISTORTING EXCESSIVELY.
   ELEMENT FINAL_PART-1.279 IS DISTORTING EXCESSIVELY.
   ELEMENT FINAL_PART-1.280 IS DISTORTING EXCESSIVELY.
   ELEMENT FINAL_PART-1.281 IS DISTORTING EXCESSIVELY.
   ELEMENT FINAL_PART-1.283 IS DISTORTING EXCESSIVELY.
   ELEMENT FINAL_PART-1.284 IS DISTORTING EXCESSIVELY.
   ELEMENT FINAL_PART-1.285 IS DISTORTING EXCESSIVELY.
   ELEMENT FINAL_PART-1.286 IS DISTORTING EXCESSIVELY.
   ELEMENT FINAL_PART-1.290 IS DISTORTING EXCESSIVELY.
   ELEMENT FINAL_PART-1.293 IS DISTORTING EXCESSIVELY.
   ELEMENT FINAL_PART-1.298 IS DISTORTING EXCESSIVELY.
   ELEMENT FINAL_PART-1.299 IS DISTORTING EXCESSIVELY.
   ELEMENT FINAL_PART-1.300 IS DISTORTING EXCESSIVELY.
   ELEMENT FINAL_PART-1.302 IS DISTORTING EXCESSIVELY.
   ELEMENT FINAL_PART-1.304 IS DISTORTING EXCESSIVELY.
   ELEMENT FINAL_PART-1.305 IS DISTORTING EXCESSIVELY.
   ELEMENT FINAL_PART-1.307 IS DISTORTING EXCESSIVELY.
   ELEMENT FINAL_PART-1.310 IS DISTORTING EXCESSIVELY.
   ELEMENT FINAL_PART-1.311 IS DISTORTING EXCESSIVELY.
   ELEMENT FINAL_PART-1.317 IS DISTORTING EXCESSIVELY.
   ELEMENT FINAL_PART-1.318 IS DISTORTING EXCESSIVELY.
   ELEMENT FINAL_PART-1.319 IS DISTORTING EXCESSIVELY.
   ELEMENT FINAL_PART-1.320 IS DISTORTING EXCESSIVELY.
   ELEMENT FINAL_PART-1.321 IS DISTORTING EXCESSIVELY.
   ELEMENT FINAL_PART-1.324 IS DISTORTING EXCESSIVELY.
   ELEMENT FINAL_PART-1.325 IS DISTORTING EXCESSIVELY.
   ELEMENT FINAL_PART-1.329 IS DISTORTING EXCESSIVELY.
   ELEMENT FINAL_PART-1.331 IS DISTORTING EXCESSIVELY.
   ELEMENT FINAL_PART-1.332 IS DISTORTING EXCESSIVELY.
   ELEMENT FINAL_PART-1.333 IS DISTORTING EXCESSIVELY.
   ELEMENT FINAL_PART-1.334 IS DISTORTING EXCESSIVELY.
   ELEMENT FINAL_PART-1.338 IS DISTORTING EXCESSIVELY.
   ELEMENT FINAL_PART-1.339 IS DISTORTING EXCESSIVELY.
   ELEMENT FINAL_PART-1.340 IS DISTORTING EXCESSIVELY.
   ELEMENT FINAL_PART-1.341 IS DISTORTING EXCESSIVELY.
   ELEMENT FINAL_PART-1.347 IS DISTORTING EXCESSIVELY.
   ELEMENT FINAL_PART-1.348 IS DISTORTING EXCESSIVELY.
   ELEMENT FINAL_PART-1.349 IS DISTORTING EXCESSIVELY.
   ELEMENT FINAL_PART-1.355 IS DISTORTING EXCESSIVELY.
   ELEMENT FINAL_PART-1.356 IS DISTORTING EXCESSIVELY.
   ELEMENT FINAL_PART-1.360 IS DISTORTING EXCESSIVELY.
   ELEMENT FINAL_PART-1.361 IS DISTORTING EXCESSIVELY.
   ELEMENT FINAL_PART-1.363 IS DISTORTING EXCESSIVELY.
   ELEMENT FINAL_PART-1.371 IS DISTORTING EXCESSIVELY.
   ELEMENT FINAL_PART-1.372 IS DISTORTING EXCESSIVELY.
   ELEMENT FINAL_PART-1.373 IS DISTORTING EXCESSIVELY.
   ELEMENT FINAL_PART-1.378 IS DISTORTING EXCESSIVELY.
   ELEMENT FINAL_PART-1.379 IS DISTORTING EXCESSIVELY.
   ELEMENT FINAL_PART-1.380 IS DISTORTING EXCESSIVELY.
   ELEMENT FINAL_PART-1.381 IS DISTORTING EXCESSIVELY.
   ELEMENT FINAL_PART-1.383 IS DISTORTING EXCESSIVELY.
   ELEMENT FINAL_PART-1.384 IS DISTORTING EXCESSIVELY.
   ELEMENT FINAL_PART-1.385 IS DISTORTING EXCESSIVELY.
   ELEMENT FINAL_PART-1.391 IS DISTORTING EXCESSIVELY.
   ELEMENT FINAL_PART-1.393 IS DISTORTING EXCESSIVELY.
   ELEMENT FINAL_PART-1.399 IS DISTORTING EXCESSIVELY.
   ELEMENT FINAL_PART-1.400 IS DISTORTING EXCESSIVELY.
   ELEMENT FINAL_PART-1.401 IS DISTORTING EXCESSIVELY.
   ELEMENT FINAL_PART-1.402 IS DISTORTING EXCESSIVELY.
   ELEMENT FINAL_PART-1.403 IS DISTORTING EXCESSIVELY.
   ELEMENT FINAL_PART-1.404 IS DISTORTING EXCESSIVELY.
   ELEMENT FINAL_PART-1.405 IS DISTORTING EXCESSIVELY.
   ELEMENT FINAL_PART-1.406 IS DISTORTING EXCESSIVELY.
   ELEMENT FINAL_PART-1.410 IS DISTORTING EXCESSIVELY.
   ELEMENT FINAL_PART-1.411 IS DISTORTING EXCESSIVELY.
   ELEMENT FINAL_PART-1.412 IS DISTORTING EXCESSIVELY.
   ELEMENT FINAL_PART-1.414 IS DISTORTING EXCESSIVELY.
   ELEMENT FINAL_PART-1.415 IS DISTORTING EXCESSIVELY.
   ELEMENT FINAL_PART-1.417 IS DISTORTING EXCESSIVELY.
   ELEMENT FINAL_PART-1.418 IS DISTORTING EXCESSIVELY.
   ELEMENT FINAL_PART-1.422 IS DISTORTING EXCESSIVELY.
   ELEMENT FINAL_PART-1.423 IS DISTORTING EXCESSIVELY.
   ELEMENT FINAL_PART-1.428 IS DISTORTING EXCESSIVELY.
   ELEMENT FINAL_PART-1.429 IS DISTORTING EXCESSIVELY.
   ELEMENT FINAL_PART-1.430 IS DISTORTING EXCESSIVELY.
   ELEMENT FINAL_PART-1.434 IS DISTORTING EXCESSIVELY.
   ELEMENT FINAL_PART-1.435 IS DISTORTING EXCESSIVELY.
   ELEMENT FINAL_PART-1.439 IS DISTORTING EXCESSIVELY.
   ELEMENT FINAL_PART-1.440 IS DISTORTING EXCESSIVELY.
   ELEMENT FINAL_PART-1.441 IS DISTORTING EXCESSIVELY.
   ELEMENT FINAL_PART-1.445 IS DISTORTING EXCESSIVELY.
   ELEMENT FINAL_PART-1.446 IS DISTORTING EXCESSIVELY.
   ELEMENT FINAL_PART-1.447 IS DISTORTING EXCESSIVELY.
   ELEMENT FINAL_PART-1.450 IS DISTORTING EXCESSIVELY.
   ELEMENT FINAL_PART-1.451 IS DISTORTING EXCESSIVELY.
   ELEMENT FINAL_PART-1.456 IS DISTORTING EXCESSIVELY.
   ELEMENT FINAL_PART-1.460 IS DISTORTING EXCESSIVELY.
   ELEMENT FINAL_PART-1.463 IS DISTORTING EXCESSIVELY.
   ELEMENT FINAL_PART-1.465 IS DISTORTING EXCESSIVELY.
   ELEMENT FINAL_PART-1.466 IS DISTORTING EXCESSIVELY.
   ELEMENT FINAL_PART-1.470 IS DISTORTING EXCESSIVELY.
   ELEMENT FINAL_PART-1.474 IS DISTORTING EXCESSIVELY.
   ELEMENT FINAL_PART-1.477 IS DISTORTING EXCESSIVELY.
   ELEMENT FINAL_PART-1.478 IS DISTORTING EXCESSIVELY.
   ELEMENT FINAL_PART-1.479 IS DISTORTING EXCESSIVELY.
   ELEMENT FINAL_PART-1.482 IS DISTORTING EXCESSIVELY.
   ELEMENT FINAL_PART-1.483 IS DISTORTING EXCESSIVELY.
   ELEMENT FINAL_PART-1.485 IS DISTORTING EXCESSIVELY.
   ELEMENT FINAL_PART-1.486 IS DISTORTING EXCESSIVELY.
   ELEMENT FINAL_PART-1.489 IS DISTORTING EXCESSIVELY.
   ELEMENT FINAL_PART-1.492 IS DISTORTING EXCESSIVELY.
   ELEMENT FINAL_PART-1.493 IS DISTORTING EXCESSIVELY.
   ELEMENT FINAL_PART-1.494 IS DISTORTING EXCESSIVELY.
   ELEMENT FINAL_PART-1.495 IS DISTORTING EXCESSIVELY.
   ELEMENT FINAL_PART-1.496 IS DISTORTING EXCESSIVELY.
   ELEMENT FINAL_PART-1.498 IS DISTORTING EXCESSIVELY.
   ELEMENT FINAL_PART-1.499 IS DISTORTING EXCESSIVELY.
   ELEMENT FINAL_PART-1.500 IS DISTORTING EXCESSIVELY.
   ELEMENT FINAL_PART-1.502 IS DISTORTING EXCESSIVELY.
   ELEMENT FINAL_PART-1.504 IS DISTORTING EXCESSIVELY.
   ELEMENT FINAL_PART-1.506 IS DISTORTING EXCESSIVELY.
   ELEMENT FINAL_PART-1.507 IS DISTORTING EXCESSIVELY.
   ELEMENT FINAL_PART-1.508 IS DISTORTING EXCESSIVELY.
   ELEMENT FINAL_PART-1.510 IS DISTORTING EXCESSIVELY.
   ELEMENT FINAL_PART-1.511 IS DISTORTING EXCESSIVELY.
   ELEMENT FINAL_PART-1.512 IS DISTORTING EXCESSIVELY.
   ELEMENT FINAL_PART-1.514 IS DISTORTING EXCESSIVELY.
   ELEMENT FINAL_PART-1.515 IS DISTORTING EXCESSIVELY.
   ELEMENT FINAL_PART-1.516 IS DISTORTING EXCESSIVELY.
   ELEMENT FINAL_PART-1.519 IS DISTORTING EXCESSIVELY.
   ELEMENT FINAL_PART-1.522 IS DISTORTING EXCESSIVELY.
   ELEMENT FINAL_PART-1.523 IS DISTORTING EXCESSIVELY.
   ELEMENT FINAL_PART-1.524 IS DISTORTING EXCESSIVELY.
   ELEMENT FINAL_PART-1.525 IS DISTORTING EXCESSIVELY.
   ELEMENT FINAL_PART-1.526 IS DISTORTING EXCESSIVELY.
   ELEMENT FINAL_PART-1.527 IS DISTORTING EXCESSIVELY.
   ELEMENT FINAL_PART-1.528 IS DISTORTING EXCESSIVELY.
   ELEMENT FINAL_PART-1.529 IS DISTORTING EXCESSIVELY.
   ELEMENT FINAL_PART-1.531 IS DISTORTING EXCESSIVELY.
   ELEMENT FINAL_PART-1.532 IS DISTORTING EXCESSIVELY.
   ELEMENT FINAL_PART-1.535 IS DISTORTING EXCESSIVELY.
   ELEMENT FINAL_PART-1.539 IS DISTORTING EXCESSIVELY.
   ELEMENT FINAL_PART-1.541 IS DISTORTING EXCESSIVELY.
   ELEMENT FINAL_PART-1.544 IS DISTORTING EXCESSIVELY.
   ELEMENT FINAL_PART-1.548 IS DISTORTING EXCESSIVELY.
   ELEMENT FINAL_PART-1.550 IS DISTORTING EXCESSIVELY.
   ELEMENT FINAL_PART-1.551 IS DISTORTING EXCESSIVELY.
   ELEMENT FINAL_PART-1.553 IS DISTORTING EXCESSIVELY.
   ELEMENT FINAL_PART-1.561 IS DISTORTING EXCESSIVELY.
   ELEMENT FINAL_PART-1.564 IS DISTORTING EXCESSIVELY.
   ELEMENT FINAL_PART-1.565 IS DISTORTING EXCESSIVELY.
   ELEMENT FINAL_PART-1.566 IS DISTORTING EXCESSIVELY.
   ELEMENT FINAL_PART-1.568 IS DISTORTING EXCESSIVELY.
   ELEMENT FINAL_PART-1.569 IS DISTORTING EXCESSIVELY.
   ELEMENT FINAL_PART-1.570 IS DISTORTING EXCESSIVELY.
   ELEMENT FINAL_PART-1.571 IS DISTORTING EXCESSIVELY.
   ELEMENT FINAL_PART-1.572 IS DISTORTING EXCESSIVELY.
   ELEMENT FINAL_PART-1.573 IS DISTORTING EXCESSIVELY.
   ELEMENT FINAL_PART-1.577 IS DISTORTING EXCESSIVELY.
   ELEMENT FINAL_PART-1.579 IS DISTORTING EXCESSIVELY.
   ELEMENT FINAL_PART-1.580 IS DISTORTING EXCESSIVELY.
   ELEMENT FINAL_PART-1.582 IS DISTORTING EXCESSIVELY.
   ELEMENT FINAL_PART-1.585 IS DISTORTING EXCESSIVELY.
   ELEMENT FINAL_PART-1.589 IS DISTORTING EXCESSIVELY.
   ELEMENT FINAL_PART-1.592 IS DISTORTING EXCESSIVELY.
   ELEMENT FINAL_PART-1.594 IS DISTORTING EXCESSIVELY.
   ELEMENT FINAL_PART-1.598 IS DISTORTING EXCESSIVELY.
   ELEMENT FINAL_PART-1.599 IS DISTORTING EXCESSIVELY.
   ELEMENT FINAL_PART-1.600 IS DISTORTING EXCESSIVELY.
   ELEMENT FINAL_PART-1.608 IS DISTORTING EXCESSIVELY.
   ELEMENT FINAL_PART-1.609 IS DISTORTING EXCESSIVELY.
   ELEMENT FINAL_PART-1.612 IS DISTORTING EXCESSIVELY.
   ELEMENT FINAL_PART-1.613 IS DISTORTING EXCESSIVELY.
   ELEMENT FINAL_PART-1.615 IS DISTORTING EXCESSIVELY.
   ELEMENT FINAL_PART-1.617 IS DISTORTING EXCESSIVELY.
   ELEMENT FINAL_PART-1.620 IS DISTORTING EXCESSIVELY.
   ELEMENT FINAL_PART-1.621 IS DISTORTING EXCESSIVELY.
   ELEMENT FINAL_PART-1.622 IS DISTORTING EXCESSIVELY.
   ELEMENT FINAL_PART-1.627 IS DISTORTING EXCESSIVELY.
   ELEMENT FINAL_PART-1.630 IS DISTORTING EXCESSIVELY.
   ELEMENT FINAL_PART-1.631 IS DISTORTING EXCESSIVELY.
   ELEMENT FINAL_PART-1.632 IS DISTORTING EXCESSIVELY.
   ELEMENT FINAL_PART-1.633 IS DISTORTING EXCESSIVELY.
   ELEMENT FINAL_PART-1.634 IS DISTORTING EXCESSIVELY.
   ELEMENT FINAL_PART-1.635 IS DISTORTING EXCESSIVELY.
   ELEMENT FINAL_PART-1.640 IS DISTORTING EXCESSIVELY.
   ELEMENT FINAL_PART-1.642 IS DISTORTING EXCESSIVELY.
   ELEMENT FINAL_PART-1.643 IS DISTORTING EXCESSIVELY.
   ELEMENT FINAL_PART-1.644 IS DISTORTING EXCESSIVELY.
   ELEMENT FINAL_PART-1.645 IS DISTORTING EXCESSIVELY.
   ELEMENT FINAL_PART-1.651 IS DISTORTING EXCESSIVELY.
   ELEMENT FINAL_PART-1.652 IS DISTORTING EXCESSIVELY.
   ELEMENT FINAL_PART-1.654 IS DISTORTING EXCESSIVELY.
   ELEMENT FINAL_PART-1.655 IS DISTORTING EXCESSIVELY.
   ELEMENT FINAL_PART-1.656 IS DISTORTING EXCESSIVELY.
   ELEMENT FINAL_PART-1.660 IS DISTORTING EXCESSIVELY.
   ELEMENT FINAL_PART-1.663 IS DISTORTING EXCESSIVELY.
   ELEMENT FINAL_PART-1.664 IS DISTORTING EXCESSIVELY.
   ELEMENT FINAL_PART-1.667 IS DISTORTING EXCESSIVELY.
   ELEMENT FINAL_PART-1.671 IS DISTORTING EXCESSIVELY.
   ELEMENT FINAL_PART-1.672 IS DISTORTING EXCESSIVELY.
   ELEMENT FINAL_PART-1.673 IS DISTORTING EXCESSIVELY.
   ELEMENT FINAL_PART-1.674 IS DISTORTING EXCESSIVELY.
   ELEMENT FINAL_PART-1.676 IS DISTORTING EXCESSIVELY.
   ELEMENT FINAL_PART-1.680 IS DISTORTING EXCESSIVELY.
   ELEMENT FINAL_PART-1.681 IS DISTORTING EXCESSIVELY.
   ELEMENT FINAL_PART-1.682 IS DISTORTING EXCESSIVELY.
   ELEMENT FINAL_PART-1.683 IS DISTORTING EXCESSIVELY.
   ELEMENT FINAL_PART-1.684 IS DISTORTING EXCESSIVELY.
   ELEMENT FINAL_PART-1.685 IS DISTORTING EXCESSIVELY.
   ELEMENT FINAL_PART-1.687 IS DISTORTING EXCESSIVELY.
   ELEMENT FINAL_PART-1.692 IS DISTORTING EXCESSIVELY.
   ELEMENT FINAL_PART-1.693 IS DISTORTING EXCESSIVELY.
   ELEMENT FINAL_PART-1.694 IS DISTORTING EXCESSIVELY.
   ELEMENT FINAL_PART-1.698 IS DISTORTING EXCESSIVELY.
   ELEMENT FINAL_PART-1.702 IS DISTORTING EXCESSIVELY.
   ELEMENT FINAL_PART-1.703 IS DISTORTING EXCESSIVELY.
   ELEMENT FINAL_PART-1.709 IS DISTORTING EXCESSIVELY.
   ELEMENT FINAL_PART-1.710 IS DISTORTING EXCESSIVELY.
   ELEMENT FINAL_PART-1.711 IS DISTORTING EXCESSIVELY.
   ELEMENT FINAL_PART-1.712 IS DISTORTING EXCESSIVELY.
   ELEMENT FINAL_PART-1.715 IS DISTORTING EXCESSIVELY.
   ELEMENT FINAL_PART-1.716 IS DISTORTING EXCESSIVELY.
   ELEMENT FINAL_PART-1.717 IS DISTORTING EXCESSIVELY.
   ELEMENT FINAL_PART-1.720 IS DISTORTING EXCESSIVELY.
   ELEMENT FINAL_PART-1.722 IS DISTORTING EXCESSIVELY.
   ELEMENT FINAL_PART-1.725 IS DISTORTING EXCESSIVELY.
   ELEMENT FINAL_PART-1.727 IS DISTORTING EXCESSIVELY.
   ELEMENT FINAL_PART-1.729 IS DISTORTING EXCESSIVELY.
   ELEMENT FINAL_PART-1.732 IS DISTORTING EXCESSIVELY.
   ELEMENT FINAL_PART-1.734 IS DISTORTING EXCESSIVELY.
   ELEMENT FINAL_PART-1.738 IS DISTORTING EXCESSIVELY.
   ELEMENT FINAL_PART-1.741 IS DISTORTING EXCESSIVELY.
   ELEMENT FINAL_PART-1.743 IS DISTORTING EXCESSIVELY.
   ELEMENT FINAL_PART-1.744 IS DISTORTING EXCESSIVELY.
   ELEMENT FINAL_PART-1.745 IS DISTORTING EXCESSIVELY.
   ELEMENT FINAL_PART-1.746 IS DISTORTING EXCESSIVELY.
   ELEMENT FINAL_PART-1.747 IS DISTORTING EXCESSIVELY.
   ELEMENT FINAL_PART-1.752 IS DISTORTING EXCESSIVELY.
   ELEMENT FINAL_PART-1.754 IS DISTORTING EXCESSIVELY.
   ELEMENT FINAL_PART-1.756 IS DISTORTING EXCESSIVELY.
   ELEMENT FINAL_PART-1.757 IS DISTORTING EXCESSIVELY.
   ELEMENT FINAL_PART-1.758 IS DISTORTING EXCESSIVELY.
   ELEMENT FINAL_PART-1.760 IS DISTORTING EXCESSIVELY.
   ELEMENT FINAL_PART-1.761 IS DISTORTING EXCESSIVELY.
   ELEMENT FINAL_PART-1.762 IS DISTORTING EXCESSIVELY.
   ELEMENT FINAL_PART-1.764 IS DISTORTING EXCESSIVELY.
   ELEMENT FINAL_PART-1.765 IS DISTORTING EXCESSIVELY.
   ELEMENT FINAL_PART-1.766 IS DISTORTING EXCESSIVELY.
   ELEMENT FINAL_PART-1.770 IS DISTORTING EXCESSIVELY.
   ELEMENT FINAL_PART-1.772 IS DISTORTING EXCESSIVELY.
   ELEMENT FINAL_PART-1.776 IS DISTORTING EXCESSIVELY.
   ELEMENT FINAL_PART-1.779 IS DISTORTING EXCESSIVELY.
   ELEMENT FINAL_PART-1.781 IS DISTORTING EXCESSIVELY.
   ELEMENT FINAL_PART-1.782 IS DISTORTING EXCESSIVELY.
   ELEMENT FINAL_PART-1.787 IS DISTORTING EXCESSIVELY.
   ELEMENT FINAL_PART-1.788 IS DISTORTING EXCESSIVELY.
   ELEMENT FINAL_PART-1.789 IS DISTORTING EXCESSIVELY.
   ELEMENT FINAL_PART-1.792 IS DISTORTING EXCESSIVELY.
   ELEMENT FINAL_PART-1.796 IS DISTORTING EXCESSIVELY.
   ELEMENT FINAL_PART-1.799 IS DISTORTING EXCESSIVELY.
   ELEMENT FINAL_PART-1.800 IS DISTORTING EXCESSIVELY.
   ELEMENT FINAL_PART-1.804 IS DISTORTING EXCESSIVELY.
   ELEMENT FINAL_PART-1.806 IS DISTORTING EXCESSIVELY.
   ELEMENT FINAL_PART-1.809 IS DISTORTING EXCESSIVELY.
   ELEMENT FINAL_PART-1.811 IS DISTORTING EXCESSIVELY.
   ELEMENT FINAL_PART-1.813 IS DISTORTING EXCESSIVELY.
   ELEMENT FINAL_PART-1.825 IS DISTORTING EXCESSIVELY.
   ELEMENT FINAL_PART-1.827 IS DISTORTING EXCESSIVELY.
   ELEMENT FINAL_PART-1.828 IS DISTORTING EXCESSIVELY.
   ELEMENT FINAL_PART-1.830 IS DISTORTING EXCESSIVELY.
   ELEMENT FINAL_PART-1.832 IS DISTORTING EXCESSIVELY.
   ELEMENT FINAL_PART-1.834 IS DISTORTING EXCESSIVELY.
   ELEMENT FINAL_PART-1.835 IS DISTORTING EXCESSIVELY.
   ELEMENT FINAL_PART-1.836 IS DISTORTING EXCESSIVELY.
   ELEMENT FINAL_PART-1.840 IS DISTORTING EXCESSIVELY.
   ELEMENT FINAL_PART-1.844 IS DISTORTING EXCESSIVELY.
   ELEMENT FINAL_PART-1.845 IS DISTORTING EXCESSIVELY.
   ELEMENT FINAL_PART-1.847 IS DISTORTING EXCESSIVELY.
   ELEMENT FINAL_PART-1.848 IS DISTORTING EXCESSIVELY.
   ELEMENT FINAL_PART-1.850 IS DISTORTING EXCESSIVELY.
   ELEMENT FINAL_PART-1.851 IS DISTORTING EXCESSIVELY.
   ELEMENT FINAL_PART-1.852 IS DISTORTING EXCESSIVELY.
   ELEMENT FINAL_PART-1.854 IS DISTORTING EXCESSIVELY.
   ELEMENT FINAL_PART-1.855 IS DISTORTING EXCESSIVELY.
   ELEMENT FINAL_PART-1.856 IS DISTORTING EXCESSIVELY.
   ELEMENT FINAL_PART-1.857 IS DISTORTING EXCESSIVELY.
   ELEMENT FINAL_PART-1.858 IS DISTORTING EXCESSIVELY.
   ELEMENT FINAL_PART-1.859 IS DISTORTING EXCESSIVELY.
   ELEMENT FINAL_PART-1.866 IS DISTORTING EXCESSIVELY.
   ELEMENT FINAL_PART-1.867 IS DISTORTING EXCESSIVELY.
   ELEMENT FINAL_PART-1.868 IS DISTORTING EXCESSIVELY.
   ELEMENT FINAL_PART-1.869 IS DISTORTING EXCESSIVELY.
   ELEMENT FINAL_PART-1.870 IS DISTORTING EXCESSIVELY.
   ELEMENT FINAL_PART-1.872 IS DISTORTING EXCESSIVELY.
   ELEMENT FINAL_PART-1.876 IS DISTORTING EXCESSIVELY.
   ELEMENT FINAL_PART-1.877 IS DISTORTING EXCESSIVELY.
   ELEMENT FINAL_PART-1.878 IS DISTORTING EXCESSIVELY.
   ELEMENT FINAL_PART-1.879 IS DISTORTING EXCESSIVELY.
   ELEMENT FINAL_PART-1.881 IS DISTORTING EXCESSIVELY.
   ELEMENT FINAL_PART-1.882 IS DISTORTING EXCESSIVELY.
   ELEMENT FINAL_PART-1.883 IS DISTORTING EXCESSIVELY.
   ELEMENT FINAL_PART-1.885 IS DISTORTING EXCESSIVELY.
   ELEMENT FINAL_PART-1.886 IS DISTORTING EXCESSIVELY.
   ELEMENT FINAL_PART-1.888 IS DISTORTING EXCESSIVELY.
   ELEMENT FINAL_PART-1.889 IS DISTORTING EXCESSIVELY.
   ELEMENT FINAL_PART-1.890 IS DISTORTING EXCESSIVELY.
   ELEMENT FINAL_PART-1.891 IS DISTORTING EXCESSIVELY.
   ELEMENT FINAL_PART-1.893 IS DISTORTING EXCESSIVELY.
   ELEMENT FINAL_PART-1.896 IS DISTORTING EXCESSIVELY.
   ELEMENT FINAL_PART-1.898 IS DISTORTING EXCESSIVELY.
   ELEMENT FINAL_PART-1.900 IS DISTORTING EXCESSIVELY.
   ELEMENT FINAL_PART-1.901 IS DISTORTING EXCESSIVELY.
   ELEMENT FINAL_PART-1.905 IS DISTORTING EXCESSIVELY.
   ELEMENT FINAL_PART-1.906 IS DISTORTING EXCESSIVELY.
   ELEMENT FINAL_PART-1.907 IS DISTORTING EXCESSIVELY.
   ELEMENT FINAL_PART-1.908 IS DISTORTING EXCESSIVELY.
   ELEMENT FINAL_PART-1.912 IS DISTORTING EXCESSIVELY.
   ELEMENT FINAL_PART-1.915 IS DISTORTING EXCESSIVELY.
   ELEMENT FINAL_PART-1.916 IS DISTORTING EXCESSIVELY.
   ELEMENT FINAL_PART-1.918 IS DISTORTING EXCESSIVELY.
   ELEMENT FINAL_PART-1.920 IS DISTORTING EXCESSIVELY.
   ELEMENT FINAL_PART-1.923 IS DISTORTING EXCESSIVELY.
   ELEMENT FINAL_PART-1.927 IS DISTORTING EXCESSIVELY.
   ELEMENT FINAL_PART-1.929 IS DISTORTING EXCESSIVELY.
   ELEMENT FINAL_PART-1.930 IS DISTORTING EXCESSIVELY.
   ELEMENT FINAL_PART-1.935 IS DISTORTING EXCESSIVELY.
   ELEMENT FINAL_PART-1.936 IS DISTORTING EXCESSIVELY.
   ELEMENT FINAL_PART-1.937 IS DISTORTING EXCESSIVELY.
   ELEMENT FINAL_PART-1.939 IS DISTORTING EXCESSIVELY.
   ELEMENT FINAL_PART-1.947 IS DISTORTING EXCESSIVELY.
   ELEMENT FINAL_PART-1.949 IS DISTORTING EXCESSIVELY.
   ELEMENT FINAL_PART-1.950 IS DISTORTING EXCESSIVELY.
   ELEMENT FINAL_PART-1.951 IS DISTORTING EXCESSIVELY.
   ELEMENT FINAL_PART-1.952 IS DISTORTING EXCESSIVELY.
   ELEMENT FINAL_PART-1.957 IS DISTORTING EXCESSIVELY.
   ELEMENT FINAL_PART-1.958 IS DISTORTING EXCESSIVELY.
   ELEMENT FINAL_PART-1.961 IS DISTORTING EXCESSIVELY.
   ELEMENT FINAL_PART-1.962 IS DISTORTING EXCESSIVELY.
   ELEMENT FINAL_PART-1.963 IS DISTORTING EXCESSIVELY.
   ELEMENT FINAL_PART-1.964 IS DISTORTING EXCESSIVELY.
   ELEMENT FINAL_PART-1.965 IS DISTORTING EXCESSIVELY.
   ELEMENT FINAL_PART-1.967 IS DISTORTING EXCESSIVELY.
   ELEMENT FINAL_PART-1.971 IS DISTORTING EXCESSIVELY.
   ELEMENT FINAL_PART-1.972 IS DISTORTING EXCESSIVELY.
   ELEMENT FINAL_PART-1.973 IS DISTORTING EXCESSIVELY.
   ELEMENT FINAL_PART-1.976 IS DISTORTING EXCESSIVELY.
   ELEMENT FINAL_PART-1.980 IS DISTORTING EXCESSIVELY.
   ELEMENT FINAL_PART-1.981 IS DISTORTING EXCESSIVELY.
   ELEMENT FINAL_PART-1.982 IS DISTORTING EXCESSIVELY.
   ELEMENT FINAL_PART-1.983 IS DISTORTING EXCESSIVELY.
   ELEMENT FINAL_PART-1.989 IS DISTORTING EXCESSIVELY.
   ELEMENT FINAL_PART-1.990 IS DISTORTING EXCESSIVELY.
   ELEMENT FINAL_PART-1.991 IS DISTORTING EXCESSIVELY.
   ELEMENT FINAL_PART-1.996 IS DISTORTING EXCESSIVELY.
   ELEMENT FINAL_PART-1.998 IS DISTORTING EXCESSIVELY.
   ELEMENT FINAL_PART-1.999 IS DISTORTING EXCESSIVELY.
   ELEMENT FINAL_PART-1.1000 IS DISTORTING EXCESSIVELY.
   ELEMENT FINAL_PART-1.1001 IS DISTORTING EXCESSIVELY.
   ELEMENT FINAL_PART-1.1004 IS DISTORTING EXCESSIVELY.
   ELEMENT FINAL_PART-1.1006 IS DISTORTING EXCESSIVELY.
   ELEMENT FINAL_PART-1.1007 IS DISTORTING EXCESSIVELY.
   ELEMENT FINAL_PART-1.1008 IS DISTORTING EXCESSIVELY.
   ELEMENT FINAL_PART-1.1010 IS DISTORTING EXCESSIVELY.
   ELEMENT FINAL_PART-1.1011 IS DISTORTING EXCESSIVELY.
   ELEMENT FINAL_PART-1.1012 IS DISTORTING EXCESSIVELY.
   ELEMENT FINAL_PART-1.1013 IS DISTORTING EXCESSIVELY.
   ELEMENT FINAL_PART-1.1014 IS DISTORTING EXCESSIVELY.
   ELEMENT FINAL_PART-1.1015 IS DISTORTING EXCESSIVELY.
   ELEMENT FINAL_PART-1.1016 IS DISTORTING EXCESSIVELY.
   ELEMENT FINAL_PART-1.1022 IS DISTORTING EXCESSIVELY.
   ELEMENT FINAL_PART-1.1023 IS DISTORTING EXCESSIVELY.
   ELEMENT FINAL_PART-1.1024 IS DISTORTING EXCESSIVELY.
   ELEMENT FINAL_PART-1.1028 IS DISTORTING EXCESSIVELY.
   ELEMENT FINAL_PART-1.1030 IS DISTORTING EXCESSIVELY.
   ELEMENT FINAL_PART-1.1031 IS DISTORTING EXCESSIVELY.
   ELEMENT FINAL_PART-1.1032 IS DISTORTING EXCESSIVELY.
   ELEMENT FINAL_PART-1.1033 IS DISTORTING EXCESSIVELY.
   ELEMENT FINAL_PART-1.1036 IS DISTORTING EXCESSIVELY.
   ELEMENT FINAL_PART-1.1040 IS DISTORTING EXCESSIVELY.
   ELEMENT FINAL_PART-1.1044 IS DISTORTING EXCESSIVELY.
   ELEMENT FINAL_PART-1.1045 IS DISTORTING EXCESSIVELY.
   ELEMENT FINAL_PART-1.1046 IS DISTORTING EXCESSIVELY.
   ELEMENT FINAL_PART-1.1048 IS DISTORTING EXCESSIVELY.
   ELEMENT FINAL_PART-1.1050 IS DISTORTING EXCESSIVELY.
   ELEMENT FINAL_PART-1.1054 IS DISTORTING EXCESSIVELY.
   ELEMENT FINAL_PART-1.1055 IS DISTORTING EXCESSIVELY.
   ELEMENT FINAL_PART-1.1064 IS DISTORTING EXCESSIVELY.
   ELEMENT FINAL_PART-1.1069 IS DISTORTING EXCESSIVELY.
   ELEMENT FINAL_PART-1.1070 IS DISTORTING EXCESSIVELY.
   ELEMENT FINAL_PART-1.1074 IS DISTORTING EXCESSIVELY.
   ELEMENT FINAL_PART-1.1079 IS DISTORTING EXCESSIVELY.
   ELEMENT FINAL_PART-1.1080 IS DISTORTING EXCESSIVELY.
   ELEMENT FINAL_PART-1.1081 IS DISTORTING EXCESSIVELY.
   ELEMENT FINAL_PART-1.1085 IS DISTORTING EXCESSIVELY.
   ELEMENT FINAL_PART-1.1086 IS DISTORTING EXCESSIVELY.
   ELEMENT FINAL_PART-1.1087 IS DISTORTING EXCESSIVELY.
   ELEMENT FINAL_PART-1.1088 IS DISTORTING EXCESSIVELY.
   ELEMENT FINAL_PART-1.1091 IS DISTORTING EXCESSIVELY.
   ELEMENT FINAL_PART-1.1093 IS DISTORTING EXCESSIVELY.
   ELEMENT FINAL_PART-1.1095 IS DISTORTING EXCESSIVELY.
   ELEMENT FINAL_PART-1.1096 IS DISTORTING EXCESSIVELY.
   ELEMENT FINAL_PART-1.1102 IS DISTORTING EXCESSIVELY.
   ELEMENT FINAL_PART-1.1103 IS DISTORTING EXCESSIVELY.
   ELEMENT FINAL_PART-1.1104 IS DISTORTING EXCESSIVELY.
   ELEMENT FINAL_PART-1.1105 IS DISTORTING EXCESSIVELY.
   ELEMENT FINAL_PART-1.1109 IS DISTORTING EXCESSIVELY.
   ELEMENT FINAL_PART-1.1112 IS DISTORTING EXCESSIVELY.
   ELEMENT FINAL_PART-1.1113 IS DISTORTING EXCESSIVELY.
   ELEMENT FINAL_PART-1.1115 IS DISTORTING EXCESSIVELY.
   ELEMENT FINAL_PART-1.1116 IS DISTORTING EXCESSIVELY.
   ELEMENT FINAL_PART-1.1120 IS DISTORTING EXCESSIVELY.
   ELEMENT FINAL_PART-1.1124 IS DISTORTING EXCESSIVELY.
   ELEMENT FINAL_PART-1.1127 IS DISTORTING EXCESSIVELY.
   ELEMENT FINAL_PART-1.1128 IS DISTORTING EXCESSIVELY.
   ELEMENT FINAL_PART-1.1129 IS DISTORTING EXCESSIVELY.
   ELEMENT FINAL_PART-1.1131 IS DISTORTING EXCESSIVELY.
   ELEMENT FINAL_PART-1.1136 IS DISTORTING EXCESSIVELY.
   ELEMENT FINAL_PART-1.1137 IS DISTORTING EXCESSIVELY.
   ELEMENT FINAL_PART-1.1139 IS DISTORTING EXCESSIVELY.
   ELEMENT FINAL_PART-1.1140 IS DISTORTING EXCESSIVELY.
   ELEMENT FINAL_PART-1.1142 IS DISTORTING EXCESSIVELY.
   ELEMENT FINAL_PART-1.1143 IS DISTORTING EXCESSIVELY.
   ELEMENT FINAL_PART-1.1145 IS DISTORTING EXCESSIVELY.
   ELEMENT FINAL_PART-1.1150 IS DISTORTING EXCESSIVELY.
   ELEMENT FINAL_PART-1.1151 IS DISTORTING EXCESSIVELY.
   ELEMENT FINAL_PART-1.1152 IS DISTORTING EXCESSIVELY.
   ELEMENT FINAL_PART-1.1156 IS DISTORTING EXCESSIVELY.
   ELEMENT FINAL_PART-1.1157 IS DISTORTING EXCESSIVELY.
   ELEMENT FINAL_PART-1.1160 IS DISTORTING EXCESSIVELY.
   ELEMENT FINAL_PART-1.1162 IS DISTORTING EXCESSIVELY.
   ELEMENT FINAL_PART-1.1163 IS DISTORTING EXCESSIVELY.
   ELEMENT FINAL_PART-1.1164 IS DISTORTING EXCESSIVELY.
   ELEMENT FINAL_PART-1.1165 IS DISTORTING EXCESSIVELY.
   ELEMENT FINAL_PART-1.1166 IS DISTORTING EXCESSIVELY.
   ELEMENT FINAL_PART-1.1167 IS DISTORTING EXCESSIVELY.
   ELEMENT FINAL_PART-1.1168 IS DISTORTING EXCESSIVELY.
   ELEMENT FINAL_PART-1.1169 IS DISTORTING EXCESSIVELY.
   ELEMENT FINAL_PART-1.1171 IS DISTORTING EXCESSIVELY.
   ELEMENT FINAL_PART-1.1172 IS DISTORTING EXCESSIVELY.
   ELEMENT FINAL_PART-1.1180 IS DISTORTING EXCESSIVELY.
   ELEMENT FINAL_PART-1.1181 IS DISTORTING EXCESSIVELY.
   ELEMENT FINAL_PART-1.1183 IS DISTORTING EXCESSIVELY.
   ELEMENT FINAL_PART-1.1184 IS DISTORTING EXCESSIVELY.
   ELEMENT FINAL_PART-1.1186 IS DISTORTING EXCESSIVELY.
   ELEMENT FINAL_PART-1.1188 IS DISTORTING EXCESSIVELY.
   ELEMENT FINAL_PART-1.1190 IS DISTORTING EXCESSIVELY.
   ELEMENT FINAL_PART-1.1191 IS DISTORTING EXCESSIVELY.
   ELEMENT FINAL_PART-1.1193 IS DISTORTING EXCESSIVELY.
   ELEMENT FINAL_PART-1.1196 IS DISTORTING EXCESSIVELY.
   ELEMENT FINAL_PART-1.1197 IS DISTORTING EXCESSIVELY.
   ELEMENT FINAL_PART-1.1200 IS DISTORTING EXCESSIVELY.
   ELEMENT FINAL_PART-1.1202 IS DISTORTING EXCESSIVELY.
   ELEMENT FINAL_PART-1.1203 IS DISTORTING EXCESSIVELY.
   ELEMENT FINAL_PART-1.1204 IS DISTORTING EXCESSIVELY.
   ELEMENT FINAL_PART-1.1205 IS DISTORTING EXCESSIVELY.
   ELEMENT FINAL_PART-1.1208 IS DISTORTING EXCESSIVELY.
   ELEMENT FINAL_PART-1.1209 IS DISTORTING EXCESSIVELY.
   ELEMENT FINAL_PART-1.1210 IS DISTORTING EXCESSIVELY.
   ELEMENT FINAL_PART-1.1211 IS DISTORTING EXCESSIVELY.
   ELEMENT FINAL_PART-1.1213 IS DISTORTING EXCESSIVELY.
   ELEMENT FINAL_PART-1.1214 IS DISTORTING EXCESSIVELY.
   ELEMENT FINAL_PART-1.1215 IS DISTORTING EXCESSIVELY.
   ELEMENT FINAL_PART-1.1217 IS DISTORTING EXCESSIVELY.
   ELEMENT FINAL_PART-1.1218 IS DISTORTING EXCESSIVELY.
   ELEMENT FINAL_PART-1.1219 IS DISTORTING EXCESSIVELY.
   ELEMENT FINAL_PART-1.1220 IS DISTORTING EXCESSIVELY.
   ELEMENT FINAL_PART-1.1221 IS DISTORTING EXCESSIVELY.
   ELEMENT FINAL_PART-1.1222 IS DISTORTING EXCESSIVELY.
   ELEMENT FINAL_PART-1.1223 IS DISTORTING EXCESSIVELY.
   ELEMENT FINAL_PART-1.1224 IS DISTORTING EXCESSIVELY.
   ELEMENT FINAL_PART-1.1226 IS DISTORTING EXCESSIVELY.
   ELEMENT FINAL_PART-1.1232 IS DISTORTING EXCESSIVELY.
   ELEMENT FINAL_PART-1.1233 IS DISTORTING EXCESSIVELY.
   ELEMENT FINAL_PART-1.1234 IS DISTORTING EXCESSIVELY.
   ELEMENT FINAL_PART-1.1235 IS DISTORTING EXCESSIVELY.
   ELEMENT FINAL_PART-1.1238 IS DISTORTING EXCESSIVELY.
   ELEMENT FINAL_PART-1.1239 IS DISTORTING EXCESSIVELY.
   ELEMENT FINAL_PART-1.1243 IS DISTORTING EXCESSIVELY.
   ELEMENT FINAL_PART-1.1246 IS DISTORTING EXCESSIVELY.
   ELEMENT FINAL_PART-1.1247 IS DISTORTING EXCESSIVELY.
   ELEMENT FINAL_PART-1.1248 IS DISTORTING EXCESSIVELY.
   ELEMENT FINAL_PART-1.1249 IS DISTORTING EXCESSIVELY.
   ELEMENT FINAL_PART-1.1255 IS DISTORTING EXCESSIVELY.
   ELEMENT FINAL_PART-1.1257 IS DISTORTING EXCESSIVELY.
   ELEMENT FINAL_PART-1.1259 IS DISTORTING EXCESSIVELY.
   ELEMENT FINAL_PART-1.1262 IS DISTORTING EXCESSIVELY.
   ELEMENT FINAL_PART-1.1263 IS DISTORTING EXCESSIVELY.
   ELEMENT FINAL_PART-1.1267 IS DISTORTING EXCESSIVELY.
   ELEMENT FINAL_PART-1.1268 IS DISTORTING EXCESSIVELY.
   ELEMENT FINAL_PART-1.1270 IS DISTORTING EXCESSIVELY.
   ELEMENT FINAL_PART-1.1271 IS DISTORTING EXCESSIVELY.
   ELEMENT FINAL_PART-1.1272 IS DISTORTING EXCESSIVELY.
   ELEMENT FINAL_PART-1.1274 IS DISTORTING EXCESSIVELY.
   ELEMENT FINAL_PART-1.1275 IS DISTORTING EXCESSIVELY.
   ELEMENT FINAL_PART-1.1276 IS DISTORTING EXCESSIVELY.
   ELEMENT FINAL_PART-1.1277 IS DISTORTING EXCESSIVELY.
   ELEMENT FINAL_PART-1.1278 IS DISTORTING EXCESSIVELY.
   ELEMENT FINAL_PART-1.1281 IS DISTORTING EXCESSIVELY.
   ELEMENT FINAL_PART-1.1282 IS DISTORTING EXCESSIVELY.
   ELEMENT FINAL_PART-1.1283 IS DISTORTING EXCESSIVELY.
   ELEMENT FINAL_PART-1.1285 IS DISTORTING EXCESSIVELY.
   ELEMENT FINAL_PART-1.1286 IS DISTORTING EXCESSIVELY.
   ELEMENT FINAL_PART-1.1287 IS DISTORTING EXCESSIVELY.
   ELEMENT FINAL_PART-1.1289 IS DISTORTING EXCESSIVELY.
   ELEMENT FINAL_PART-1.1291 IS DISTORTING EXCESSIVELY.
   ELEMENT FINAL_PART-1.1294 IS DISTORTING EXCESSIVELY.
   ELEMENT FINAL_PART-1.1297 IS DISTORTING EXCESSIVELY.
   ELEMENT FINAL_PART-1.1299 IS DISTORTING EXCESSIVELY.
   ELEMENT FINAL_PART-1.1302 IS DISTORTING EXCESSIVELY.
   ELEMENT FINAL_PART-1.1306 IS DISTORTING EXCESSIVELY.
   ELEMENT FINAL_PART-1.1309 IS DISTORTING EXCESSIVELY.
   ELEMENT FINAL_PART-1.1310 IS DISTORTING EXCESSIVELY.
   ELEMENT FINAL_PART-1.1311 IS DISTORTING EXCESSIVELY.
   ELEMENT FINAL_PART-1.1312 IS DISTORTING EXCESSIVELY.
   ELEMENT FINAL_PART-1.1313 IS DISTORTING EXCESSIVELY.
   ELEMENT FINAL_PART-1.1314 IS DISTORTING EXCESSIVELY.
   ELEMENT FINAL_PART-1.1315 IS DISTORTING EXCESSIVELY.
   ELEMENT FINAL_PART-1.1316 IS DISTORTING EXCESSIVELY.
   ELEMENT FINAL_PART-1.1317 IS DISTORTING EXCESSIVELY.
   ELEMENT FINAL_PART-1.1318 IS DISTORTING EXCESSIVELY.
   ELEMENT FINAL_PART-1.1319 IS DISTORTING EXCESSIVELY.
   ELEMENT FINAL_PART-1.1322 IS DISTORTING EXCESSIVELY.
   ELEMENT FINAL_PART-1.1324 IS DISTORTING EXCESSIVELY.
   ELEMENT FINAL_PART-1.1327 IS DISTORTING EXCESSIVELY.
   ELEMENT FINAL_PART-1.1333 IS DISTORTING EXCESSIVELY.
   ELEMENT FINAL_PART-1.1335 IS DISTORTING EXCESSIVELY.
   ELEMENT FINAL_PART-1.1336 IS DISTORTING EXCESSIVELY.
   ELEMENT FINAL_PART-1.1338 IS DISTORTING EXCESSIVELY.
   ELEMENT FINAL_PART-1.1341 IS DISTORTING EXCESSIVELY.
   ELEMENT FINAL_PART-1.1342 IS DISTORTING EXCESSIVELY.
   ELEMENT FINAL_PART-1.1344 IS DISTORTING EXCESSIVELY.
   ELEMENT FINAL_PART-1.1345 IS DISTORTING EXCESSIVELY.
   ELEMENT FINAL_PART-1.1346 IS DISTORTING EXCESSIVELY.
   ELEMENT FINAL_PART-1.1349 IS DISTORTING EXCESSIVELY.
   ELEMENT FINAL_PART-1.1351 IS DISTORTING EXCESSIVELY.
   ELEMENT FINAL_PART-1.1353 IS DISTORTING EXCESSIVELY.
   ELEMENT FINAL_PART-1.1355 IS DISTORTING EXCESSIVELY.
   ELEMENT FINAL_PART-1.1356 IS DISTORTING EXCESSIVELY.
   ELEMENT FINAL_PART-1.1357 IS DISTORTING EXCESSIVELY.
   ELEMENT FINAL_PART-1.1359 IS DISTORTING EXCESSIVELY.
   ELEMENT FINAL_PART-1.1360 IS DISTORTING EXCESSIVELY.
   ELEMENT FINAL_PART-1.1362 IS DISTORTING EXCESSIVELY.
   ELEMENT FINAL_PART-1.1363 IS DISTORTING EXCESSIVELY.
   ELEMENT FINAL_PART-1.1364 IS DISTORTING EXCESSIVELY.
   ELEMENT FINAL_PART-1.1365 IS DISTORTING EXCESSIVELY.
   ELEMENT FINAL_PART-1.1368 IS DISTORTING EXCESSIVELY.
   ELEMENT FINAL_PART-1.1369 IS DISTORTING EXCESSIVELY.
   ELEMENT FINAL_PART-1.1370 IS DISTORTING EXCESSIVELY.
   ELEMENT FINAL_PART-1.1372 IS DISTORTING EXCESSIVELY.
   ELEMENT FINAL_PART-1.1375 IS DISTORTING EXCESSIVELY.
   ELEMENT FINAL_PART-1.1376 IS DISTORTING EXCESSIVELY.
   ELEMENT FINAL_PART-1.1383 IS DISTORTING EXCESSIVELY.
   ELEMENT FINAL_PART-1.1384 IS DISTORTING EXCESSIVELY.
   ELEMENT FINAL_PART-1.1386 IS DISTORTING EXCESSIVELY.
   ELEMENT FINAL_PART-1.1388 IS DISTORTING EXCESSIVELY.
   ELEMENT FINAL_PART-1.1391 IS DISTORTING EXCESSIVELY.
   ELEMENT FINAL_PART-1.1396 IS DISTORTING EXCESSIVELY.
   ELEMENT FINAL_PART-1.1397 IS DISTORTING EXCESSIVELY.
   ELEMENT FINAL_PART-1.1398 IS DISTORTING EXCESSIVELY.
   ELEMENT FINAL_PART-1.1399 IS DISTORTING EXCESSIVELY.
   ELEMENT FINAL_PART-1.1401 IS DISTORTING EXCESSIVELY.
   ELEMENT FINAL_PART-1.1403 IS DISTORTING EXCESSIVELY.
   ELEMENT FINAL_PART-1.1404 IS DISTORTING EXCESSIVELY.
   ELEMENT FINAL_PART-1.1407 IS DISTORTING EXCESSIVELY.
   ELEMENT FINAL_PART-1.1410 IS DISTORTING EXCESSIVELY.
   ELEMENT FINAL_PART-1.1411 IS DISTORTING EXCESSIVELY.
   ELEMENT FINAL_PART-1.1412 IS DISTORTING EXCESSIVELY.
   ELEMENT FINAL_PART-1.1413 IS DISTORTING EXCESSIVELY.
   ELEMENT FINAL_PART-1.1415 IS DISTORTING EXCESSIVELY.
   ELEMENT FINAL_PART-1.1417 IS DISTORTING EXCESSIVELY.
   ELEMENT FINAL_PART-1.1418 IS DISTORTING EXCESSIVELY.
   ELEMENT FINAL_PART-1.1419 IS DISTORTING EXCESSIVELY.
   ELEMENT FINAL_PART-1.1420 IS DISTORTING EXCESSIVELY.
   ELEMENT FINAL_PART-1.1422 IS DISTORTING EXCESSIVELY.
   ELEMENT FINAL_PART-1.1423 IS DISTORTING EXCESSIVELY.
   ELEMENT FINAL_PART-1.1424 IS DISTORTING EXCESSIVELY.
   ELEMENT FINAL_PART-1.1426 IS DISTORTING EXCESSIVELY.
   ELEMENT FINAL_PART-1.1430 IS DISTORTING EXCESSIVELY.
   ELEMENT FINAL_PART-1.1431 IS DISTORTING EXCESSIVELY.
   ELEMENT FINAL_PART-1.1435 IS DISTORTING EXCESSIVELY.
   ELEMENT FINAL_PART-1.1436 IS DISTORTING EXCESSIVELY.
   ELEMENT FINAL_PART-1.1437 IS DISTORTING EXCESSIVELY.
   ELEMENT FINAL_PART-1.1439 IS DISTORTING EXCESSIVELY.
   ELEMENT FINAL_PART-1.1440 IS DISTORTING EXCESSIVELY.
   ELEMENT FINAL_PART-1.1441 IS DISTORTING EXCESSIVELY.
   ELEMENT FINAL_PART-1.1442 IS DISTORTING EXCESSIVELY.
   ELEMENT FINAL_PART-1.1443 IS DISTORTING EXCESSIVELY.
   ELEMENT FINAL_PART-1.1447 IS DISTORTING EXCESSIVELY.
   ELEMENT FINAL_PART-1.1449 IS DISTORTING EXCESSIVELY.
   ELEMENT FINAL_PART-1.1450 IS DISTORTING EXCESSIVELY.
   ELEMENT FINAL_PART-1.1454 IS DISTORTING EXCESSIVELY.
   ELEMENT FINAL_PART-1.1456 IS DISTORTING EXCESSIVELY.
   ELEMENT FINAL_PART-1.1457 IS DISTORTING EXCESSIVELY.
   ELEMENT FINAL_PART-1.1458 IS DISTORTING EXCESSIVELY.
   ELEMENT FINAL_PART-1.1460 IS DISTORTING EXCESSIVELY.
   ELEMENT FINAL_PART-1.1461 IS DISTORTING EXCESSIVELY.
   ELEMENT FINAL_PART-1.1463 IS DISTORTING EXCESSIVELY.
   ELEMENT FINAL_PART-1.1464 IS DISTORTING EXCESSIVELY.
   ELEMENT FINAL_PART-1.1465 IS DISTORTING EXCESSIVELY.
   ELEMENT FINAL_PART-1.1466 IS DISTORTING EXCESSIVELY.
   ELEMENT FINAL_PART-1.1469 IS DISTORTING EXCESSIVELY.
   ELEMENT FINAL_PART-1.1470 IS DISTORTING EXCESSIVELY.
   ELEMENT FINAL_PART-1.1474 IS DISTORTING EXCESSIVELY.
   ELEMENT FINAL_PART-1.1475 IS DISTORTING EXCESSIVELY.
   ELEMENT FINAL_PART-1.1476 IS DISTORTING EXCESSIVELY.
   ELEMENT FINAL_PART-1.1477 IS DISTORTING EXCESSIVELY.
   ELEMENT FINAL_PART-1.1481 IS DISTORTING EXCESSIVELY.
   ELEMENT FINAL_PART-1.1485 IS DISTORTING EXCESSIVELY.
   ELEMENT FINAL_PART-1.1489 IS DISTORTING EXCESSIVELY.
   ELEMENT FINAL_PART-1.1490 IS DISTORTING EXCESSIVELY.
   ELEMENT FINAL_PART-1.1494 IS DISTORTING EXCESSIVELY.
   ELEMENT FINAL_PART-1.1495 IS DISTORTING EXCESSIVELY.
   ELEMENT FINAL_PART-1.1498 IS DISTORTING EXCESSIVELY.
   ELEMENT FINAL_PART-1.1501 IS DISTORTING EXCESSIVELY.
   ELEMENT FINAL_PART-1.1503 IS DISTORTING EXCESSIVELY.
   ELEMENT FINAL_PART-1.1506 IS DISTORTING EXCESSIVELY.
   ELEMENT FINAL_PART-1.1508 IS DISTORTING EXCESSIVELY.
   ELEMENT FINAL_PART-1.1510 IS DISTORTING EXCESSIVELY.
   ELEMENT FINAL_PART-1.1515 IS DISTORTING EXCESSIVELY.
   ELEMENT FINAL_PART-1.1516 IS DISTORTING EXCESSIVELY.
   ELEMENT FINAL_PART-1.1524 IS DISTORTING EXCESSIVELY.
   ELEMENT FINAL_PART-1.1525 IS DISTORTING EXCESSIVELY.
   ELEMENT FINAL_PART-1.1526 IS DISTORTING EXCESSIVELY.
   ELEMENT FINAL_PART-1.1528 IS DISTORTING EXCESSIVELY.
   ELEMENT FINAL_PART-1.1529 IS DISTORTING EXCESSIVELY.
   ELEMENT FINAL_PART-1.1531 IS DISTORTING EXCESSIVELY.
   ELEMENT FINAL_PART-1.1533 IS DISTORTING EXCESSIVELY.
   ELEMENT FINAL_PART-1.1534 IS DISTORTING EXCESSIVELY.
   ELEMENT FINAL_PART-1.1541 IS DISTORTING EXCESSIVELY.
   ELEMENT FINAL_PART-1.1544 IS DISTORTING EXCESSIVELY.
   ELEMENT FINAL_PART-1.1545 IS DISTORTING EXCESSIVELY.
   ELEMENT FINAL_PART-1.1547 IS DISTORTING EXCESSIVELY.
   ELEMENT FINAL_PART-1.1549 IS DISTORTING EXCESSIVELY.
   ELEMENT FINAL_PART-1.1550 IS DISTORTING EXCESSIVELY.
   ELEMENT FINAL_PART-1.1552 IS DISTORTING EXCESSIVELY.
   ELEMENT FINAL_PART-1.1553 IS DISTORTING EXCESSIVELY.
   ELEMENT FINAL_PART-1.1560 IS DISTORTING EXCESSIVELY.
   ELEMENT FINAL_PART-1.1561 IS DISTORTING EXCESSIVELY.
   ELEMENT FINAL_PART-1.1565 IS DISTORTING EXCESSIVELY.
   ELEMENT FINAL_PART-1.1566 IS DISTORTING EXCESSIVELY.
   ELEMENT FINAL_PART-1.1567 IS DISTORTING EXCESSIVELY.
   ELEMENT FINAL_PART-1.1568 IS DISTORTING EXCESSIVELY.
   ELEMENT FINAL_PART-1.1569 IS DISTORTING EXCESSIVELY.
   ELEMENT FINAL_PART-1.1571 IS DISTORTING EXCESSIVELY.
   ELEMENT FINAL_PART-1.1572 IS DISTORTING EXCESSIVELY.
   ELEMENT FINAL_PART-1.1573 IS DISTORTING EXCESSIVELY.
   ELEMENT FINAL_PART-1.1575 IS DISTORTING EXCESSIVELY.
   ELEMENT FINAL_PART-1.1577 IS DISTORTING EXCESSIVELY.
   ELEMENT FINAL_PART-1.1579 IS DISTORTING EXCESSIVELY.
   ELEMENT FINAL_PART-1.1581 IS DISTORTING EXCESSIVELY.
   ELEMENT FINAL_PART-1.1582 IS DISTORTING EXCESSIVELY.
   ELEMENT FINAL_PART-1.1583 IS DISTORTING EXCESSIVELY.
   ELEMENT FINAL_PART-1.1584 IS DISTORTING EXCESSIVELY.
   ELEMENT FINAL_PART-1.1585 IS DISTORTING EXCESSIVELY.
   ELEMENT FINAL_PART-1.1586 IS DISTORTING EXCESSIVELY.
   ELEMENT FINAL_PART-1.1587 IS DISTORTING EXCESSIVELY.
   ELEMENT FINAL_PART-1.1588 IS DISTORTING EXCESSIVELY.
   ELEMENT FINAL_PART-1.1590 IS DISTORTING EXCESSIVELY.
   ELEMENT FINAL_PART-1.1591 IS DISTORTING EXCESSIVELY.
   ELEMENT FINAL_PART-1.1592 IS DISTORTING EXCESSIVELY.
   ELEMENT FINAL_PART-1.1594 IS DISTORTING EXCESSIVELY.
   ELEMENT FINAL_PART-1.1595 IS DISTORTING EXCESSIVELY.
   ELEMENT FINAL_PART-1.1596 IS DISTORTING EXCESSIVELY.
   ELEMENT FINAL_PART-1.1598 IS DISTORTING EXCESSIVELY.
   ELEMENT FINAL_PART-1.1599 IS DISTORTING EXCESSIVELY.
   ELEMENT FINAL_PART-1.1604 IS DISTORTING EXCESSIVELY.
   ELEMENT FINAL_PART-1.1607 IS DISTORTING EXCESSIVELY.
   ELEMENT FINAL_PART-1.1608 IS DISTORTING EXCESSIVELY.
   ELEMENT FINAL_PART-1.1613 IS DISTORTING EXCESSIVELY.
   ELEMENT FINAL_PART-1.1614 IS DISTORTING EXCESSIVELY.
   ELEMENT FINAL_PART-1.1617 IS DISTORTING EXCESSIVELY.
   ELEMENT FINAL_PART-1.1621 IS DISTORTING EXCESSIVELY.
   ELEMENT FINAL_PART-1.1622 IS DISTORTING EXCESSIVELY.
   ELEMENT FINAL_PART-1.1623 IS DISTORTING EXCESSIVELY.
   ELEMENT FINAL_PART-1.1625 IS DISTORTING EXCESSIVELY.
   ELEMENT FINAL_PART-1.1627 IS DISTORTING EXCESSIVELY.
   ELEMENT FINAL_PART-1.1628 IS DISTORTING EXCESSIVELY.
   ELEMENT FINAL_PART-1.1630 IS DISTORTING EXCESSIVELY.
   ELEMENT FINAL_PART-1.1631 IS DISTORTING EXCESSIVELY.
   ELEMENT FINAL_PART-1.1632 IS DISTORTING EXCESSIVELY.
   ELEMENT FINAL_PART-1.1637 IS DISTORTING EXCESSIVELY.
   ELEMENT FINAL_PART-1.1641 IS DISTORTING EXCESSIVELY.
   ELEMENT FINAL_PART-1.1644 IS DISTORTING EXCESSIVELY.
   ELEMENT FINAL_PART-1.1645 IS DISTORTING EXCESSIVELY.
   ELEMENT FINAL_PART-1.1648 IS DISTORTING EXCESSIVELY.
   ELEMENT FINAL_PART-1.1652 IS DISTORTING EXCESSIVELY.
   ELEMENT FINAL_PART-1.1654 IS DISTORTING EXCESSIVELY.
   ELEMENT FINAL_PART-1.1656 IS DISTORTING EXCESSIVELY.
   ELEMENT FINAL_PART-1.1657 IS DISTORTING EXCESSIVELY.
   ELEMENT FINAL_PART-1.1661 IS DISTORTING EXCESSIVELY.
   ELEMENT FINAL_PART-1.1663 IS DISTORTING EXCESSIVELY.
   ELEMENT FINAL_PART-1.1665 IS DISTORTING EXCESSIVELY.
   ELEMENT FINAL_PART-1.1666 IS DISTORTING EXCESSIVELY.
   ELEMENT FINAL_PART-1.1667 IS DISTORTING EXCESSIVELY.
   ELEMENT FINAL_PART-1.1668 IS DISTORTING EXCESSIVELY.
   ELEMENT FINAL_PART-1.1669 IS DISTORTING EXCESSIVELY.
   ELEMENT FINAL_PART-1.1670 IS DISTORTING EXCESSIVELY.
   ELEMENT FINAL_PART-1.1673 IS DISTORTING EXCESSIVELY.
   ELEMENT FINAL_PART-1.1676 IS DISTORTING EXCESSIVELY.
   ELEMENT FINAL_PART-1.1677 IS DISTORTING EXCESSIVELY.
   ELEMENT FINAL_PART-1.1681 IS DISTORTING EXCESSIVELY.
   ELEMENT FINAL_PART-1.1682 IS DISTORTING EXCESSIVELY.
   ELEMENT FINAL_PART-1.1685 IS DISTORTING EXCESSIVELY.
   ELEMENT FINAL_PART-1.1686 IS DISTORTING EXCESSIVELY.
   ELEMENT FINAL_PART-1.1688 IS DISTORTING EXCESSIVELY.
   ELEMENT FINAL_PART-1.1692 IS DISTORTING EXCESSIVELY.
   ELEMENT FINAL_PART-1.1693 IS DISTORTING EXCESSIVELY.
   ELEMENT FINAL_PART-1.1695 IS DISTORTING EXCESSIVELY.
   ELEMENT FINAL_PART-1.1696 IS DISTORTING EXCESSIVELY.
   ELEMENT FINAL_PART-1.1697 IS DISTORTING EXCESSIVELY.
   ELEMENT FINAL_PART-1.1699 IS DISTORTING EXCESSIVELY.
   ELEMENT FINAL_PART-1.1702 IS DISTORTING EXCESSIVELY.
   ELEMENT FINAL_PART-1.1703 IS DISTORTING EXCESSIVELY.
   ELEMENT FINAL_PART-1.1705 IS DISTORTING EXCESSIVELY.
   ELEMENT FINAL_PART-1.1708 IS DISTORTING EXCESSIVELY.
   ELEMENT FINAL_PART-1.1710 IS DISTORTING EXCESSIVELY.
   ELEMENT FINAL_PART-1.1713 IS DISTORTING EXCESSIVELY.
   ELEMENT FINAL_PART-1.1715 IS DISTORTING EXCESSIVELY.
   ELEMENT FINAL_PART-1.1717 IS DISTORTING EXCESSIVELY.
   ELEMENT FINAL_PART-1.1719 IS DISTORTING EXCESSIVELY.
   ELEMENT FINAL_PART-1.1720 IS DISTORTING EXCESSIVELY.
   ELEMENT FINAL_PART-1.1722 IS DISTORTING EXCESSIVELY.
   ELEMENT FINAL_PART-1.1724 IS DISTORTING EXCESSIVELY.
   ELEMENT FINAL_PART-1.1727 IS DISTORTING EXCESSIVELY.
   ELEMENT FINAL_PART-1.1728 IS DISTORTING EXCESSIVELY.
   ELEMENT FINAL_PART-1.1731 IS DISTORTING EXCESSIVELY.
   ELEMENT FINAL_PART-1.1733 IS DISTORTING EXCESSIVELY.
   ELEMENT FINAL_PART-1.1736 IS DISTORTING EXCESSIVELY.
   ELEMENT FINAL_PART-1.1738 IS DISTORTING EXCESSIVELY.
   ELEMENT FINAL_PART-1.1741 IS DISTORTING EXCESSIVELY.
   ELEMENT FINAL_PART-1.1743 IS DISTORTING EXCESSIVELY.
   ELEMENT FINAL_PART-1.1745 IS DISTORTING EXCESSIVELY.
   ELEMENT FINAL_PART-1.1747 IS DISTORTING EXCESSIVELY.
   ELEMENT FINAL_PART-1.1751 IS DISTORTING EXCESSIVELY.
   ELEMENT FINAL_PART-1.1752 IS DISTORTING EXCESSIVELY.
   ELEMENT FINAL_PART-1.1755 IS DISTORTING EXCESSIVELY.
   ELEMENT FINAL_PART-1.1757 IS DISTORTING EXCESSIVELY.
   ELEMENT FINAL_PART-1.1758 IS DISTORTING EXCESSIVELY.
   ELEMENT FINAL_PART-1.1766 IS DISTORTING EXCESSIVELY.
   ELEMENT FINAL_PART-1.1769 IS DISTORTING EXCESSIVELY.
   ELEMENT FINAL_PART-1.1773 IS DISTORTING EXCESSIVELY.
   ELEMENT FINAL_PART-1.1774 IS DISTORTING EXCESSIVELY.
   ELEMENT FINAL_PART-1.1777 IS DISTORTING EXCESSIVELY.
   ELEMENT FINAL_PART-1.1778 IS DISTORTING EXCESSIVELY.
   ELEMENT FINAL_PART-1.1779 IS DISTORTING EXCESSIVELY.
   ELEMENT FINAL_PART-1.1781 IS DISTORTING EXCESSIVELY.
   ELEMENT FINAL_PART-1.1786 IS DISTORTING EXCESSIVELY.
   ELEMENT FINAL_PART-1.1788 IS DISTORTING EXCESSIVELY.
   ELEMENT FINAL_PART-1.1790 IS DISTORTING EXCESSIVELY.
   ELEMENT FINAL_PART-1.1793 IS DISTORTING EXCESSIVELY.
   ELEMENT FINAL_PART-1.1794 IS DISTORTING EXCESSIVELY.
   ELEMENT FINAL_PART-1.1796 IS DISTORTING EXCESSIVELY.
   ELEMENT FINAL_PART-1.1799 IS DISTORTING EXCESSIVELY.
   ELEMENT FINAL_PART-1.1805 IS DISTORTING EXCESSIVELY.
   ELEMENT FINAL_PART-1.1806 IS DISTORTING EXCESSIVELY.
   ELEMENT FINAL_PART-1.1809 IS DISTORTING EXCESSIVELY.
   ELEMENT FINAL_PART-1.1811 IS DISTORTING EXCESSIVELY.
   ELEMENT FINAL_PART-1.1814 IS DISTORTING EXCESSIVELY.
   ELEMENT FINAL_PART-1.1816 IS DISTORTING EXCESSIVELY.
   ELEMENT FINAL_PART-1.1817 IS DISTORTING EXCESSIVELY.
   ELEMENT FINAL_PART-1.1819 IS DISTORTING EXCESSIVELY.
   ELEMENT FINAL_PART-1.1820 IS DISTORTING EXCESSIVELY.
   ELEMENT FINAL_PART-1.1824 IS DISTORTING EXCESSIVELY.
   ELEMENT FINAL_PART-1.1825 IS DISTORTING EXCESSIVELY.
   ELEMENT FINAL_PART-1.1826 IS DISTORTING EXCESSIVELY.
   ELEMENT FINAL_PART-1.1827 IS DISTORTING EXCESSIVELY.
   ELEMENT FINAL_PART-1.1829 IS DISTORTING EXCESSIVELY.
   ELEMENT FINAL_PART-1.1831 IS DISTORTING EXCESSIVELY.
   ELEMENT FINAL_PART-1.1833 IS DISTORTING EXCESSIVELY.
   ELEMENT FINAL_PART-1.1840 IS DISTORTING EXCESSIVELY.
   ELEMENT FINAL_PART-1.1841 IS DISTORTING EXCESSIVELY.
   ELEMENT FINAL_PART-1.1842 IS DISTORTING EXCESSIVELY.
   ELEMENT FINAL_PART-1.1843 IS DISTORTING EXCESSIVELY.
   ELEMENT FINAL_PART-1.1845 IS DISTORTING EXCESSIVELY.
   ELEMENT FINAL_PART-1.1846 IS DISTORTING EXCESSIVELY.
   ELEMENT FINAL_PART-1.1847 IS DISTORTING EXCESSIVELY.
   ELEMENT FINAL_PART-1.1852 IS DISTORTING EXCESSIVELY.
   ELEMENT FINAL_PART-1.1854 IS DISTORTING EXCESSIVELY.
   ELEMENT FINAL_PART-1.1855 IS DISTORTING EXCESSIVELY.
   ELEMENT FINAL_PART-1.1856 IS DISTORTING EXCESSIVELY.
   ELEMENT FINAL_PART-1.1858 IS DISTORTING EXCESSIVELY.
   ELEMENT FINAL_PART-1.1860 IS DISTORTING EXCESSIVELY.
   ELEMENT FINAL_PART-1.1862 IS DISTORTING EXCESSIVELY.
   ELEMENT FINAL_PART-1.1864 IS DISTORTING EXCESSIVELY.
   ELEMENT FINAL_PART-1.1865 IS DISTORTING EXCESSIVELY.
   ELEMENT FINAL_PART-1.1868 IS DISTORTING EXCESSIVELY.
   ELEMENT FINAL_PART-1.1871 IS DISTORTING EXCESSIVELY.
   ELEMENT FINAL_PART-1.1872 IS DISTORTING EXCESSIVELY.
   ELEMENT FINAL_PART-1.1873 IS DISTORTING EXCESSIVELY.
   ELEMENT FINAL_PART-1.1874 IS DISTORTING EXCESSIVELY.
   ELEMENT FINAL_PART-1.1877 IS DISTORTING EXCESSIVELY.
   ELEMENT FINAL_PART-1.1879 IS DISTORTING EXCESSIVELY.
   ELEMENT FINAL_PART-1.1880 IS DISTORTING EXCESSIVELY.
   ELEMENT FINAL_PART-1.1881 IS DISTORTING EXCESSIVELY.
   ELEMENT FINAL_PART-1.1882 IS DISTORTING EXCESSIVELY.
   ELEMENT FINAL_PART-1.1884 IS DISTORTING EXCESSIVELY.
   ELEMENT FINAL_PART-1.1886 IS DISTORTING EXCESSIVELY.
   ELEMENT FINAL_PART-1.1892 IS DISTORTING EXCESSIVELY.
   ELEMENT FINAL_PART-1.1895 IS DISTORTING EXCESSIVELY.
   ELEMENT FINAL_PART-1.1896 IS DISTORTING EXCESSIVELY.
   ELEMENT FINAL_PART-1.1899 IS DISTORTING EXCESSIVELY.
   ELEMENT FINAL_PART-1.1901 IS DISTORTING EXCESSIVELY.
   ELEMENT FINAL_PART-1.1903 IS DISTORTING EXCESSIVELY.
   ELEMENT FINAL_PART-1.1906 IS DISTORTING EXCESSIVELY.
   ELEMENT FINAL_PART-1.1907 IS DISTORTING EXCESSIVELY.
   ELEMENT FINAL_PART-1.1909 IS DISTORTING EXCESSIVELY.
   ELEMENT FINAL_PART-1.1910 IS DISTORTING EXCESSIVELY.
   ELEMENT FINAL_PART-1.1912 IS DISTORTING EXCESSIVELY.
   ELEMENT FINAL_PART-1.1913 IS DISTORTING EXCESSIVELY.
   ELEMENT FINAL_PART-1.1916 IS DISTORTING EXCESSIVELY.
   ELEMENT FINAL_PART-1.1917 IS DISTORTING EXCESSIVELY.
   ELEMENT FINAL_PART-1.1919 IS DISTORTING EXCESSIVELY.
   ELEMENT FINAL_PART-1.1921 IS DISTORTING EXCESSIVELY.
   ELEMENT FINAL_PART-1.1924 IS DISTORTING EXCESSIVELY.
   ELEMENT FINAL_PART-1.1925 IS DISTORTING EXCESSIVELY.
   ELEMENT FINAL_PART-1.1926 IS DISTORTING EXCESSIVELY.
   ELEMENT FINAL_PART-1.1927 IS DISTORTING EXCESSIVELY.
   ELEMENT FINAL_PART-1.1928 IS DISTORTING EXCESSIVELY.
   ELEMENT FINAL_PART-1.1931 IS DISTORTING EXCESSIVELY.
   ELEMENT FINAL_PART-1.1933 IS DISTORTING EXCESSIVELY.
   ELEMENT FINAL_PART-1.1935 IS DISTORTING EXCESSIVELY.
   ELEMENT FINAL_PART-1.1937 IS DISTORTING EXCESSIVELY.
   ELEMENT FINAL_PART-1.1938 IS DISTORTING EXCESSIVELY.
   ELEMENT FINAL_PART-1.1940 IS DISTORTING EXCESSIVELY.
   ELEMENT FINAL_PART-1.1942 IS DISTORTING EXCESSIVELY.
   ELEMENT FINAL_PART-1.1945 IS DISTORTING EXCESSIVELY.
   ELEMENT FINAL_PART-1.1948 IS DISTORTING EXCESSIVELY.
   ELEMENT FINAL_PART-1.1949 IS DISTORTING EXCESSIVELY.
   ELEMENT FINAL_PART-1.1951 IS DISTORTING EXCESSIVELY.
   ELEMENT FINAL_PART-1.1952 IS DISTORTING EXCESSIVELY.
   ELEMENT FINAL_PART-1.1955 IS DISTORTING EXCESSIVELY.
   ELEMENT FINAL_PART-1.1956 IS DISTORTING EXCESSIVELY.
   ELEMENT FINAL_PART-1.1957 IS DISTORTING EXCESSIVELY.
   ELEMENT FINAL_PART-1.1958 IS DISTORTING EXCESSIVELY.
   ELEMENT FINAL_PART-1.1959 IS DISTORTING EXCESSIVELY.
   ELEMENT FINAL_PART-1.1960 IS DISTORTING EXCESSIVELY.
   ELEMENT FINAL_PART-1.1961 IS DISTORTING EXCESSIVELY.
   ELEMENT FINAL_PART-1.1962 IS DISTORTING EXCESSIVELY.
   ELEMENT FINAL_PART-1.1965 IS DISTORTING EXCESSIVELY.
   ELEMENT FINAL_PART-1.1968 IS DISTORTING EXCESSIVELY.
   ELEMENT FINAL_PART-1.1969 IS DISTORTING EXCESSIVELY.
   ELEMENT FINAL_PART-1.1970 IS DISTORTING EXCESSIVELY.
   ELEMENT FINAL_PART-1.1972 IS DISTORTING EXCESSIVELY.
   ELEMENT FINAL_PART-1.1973 IS DISTORTING EXCESSIVELY.
   ELEMENT FINAL_PART-1.1974 IS DISTORTING EXCESSIVELY.
   ELEMENT FINAL_PART-1.1975 IS DISTORTING EXCESSIVELY.
   ELEMENT FINAL_PART-1.1976 IS DISTORTING EXCESSIVELY.
   ELEMENT FINAL_PART-1.1977 IS DISTORTING EXCESSIVELY.
   ELEMENT FINAL_PART-1.1978 IS DISTORTING EXCESSIVELY.
   ELEMENT FINAL_PART-1.1984 IS DISTORTING EXCESSIVELY.
   ELEMENT FINAL_PART-1.1988 IS DISTORTING EXCESSIVELY.
   ELEMENT FINAL_PART-1.1989 IS DISTORTING EXCESSIVELY.
   ELEMENT FINAL_PART-1.1995 IS DISTORTING EXCESSIVELY.
   ELEMENT FINAL_PART-1.1996 IS DISTORTING EXCESSIVELY.
   ELEMENT FINAL_PART-1.1997 IS DISTORTING EXCESSIVELY.
   ELEMENT FINAL_PART-1.1998 IS DISTORTING EXCESSIVELY.
   ELEMENT FINAL_PART-1.2000 IS DISTORTING EXCESSIVELY.
   ELEMENT FINAL_PART-1.2001 IS DISTORTING EXCESSIVELY.
   ELEMENT FINAL_PART-1.2003 IS DISTORTING EXCESSIVELY.
   ELEMENT FINAL_PART-1.2004 IS DISTORTING EXCESSIVELY.
   ELEMENT FINAL_PART-1.2005 IS DISTORTING EXCESSIVELY.
   ELEMENT FINAL_PART-1.2009 IS DISTORTING EXCESSIVELY.
   ELEMENT FINAL_PART-1.2010 IS DISTORTING EXCESSIVELY.
   ELEMENT FINAL_PART-1.2011 IS DISTORTING EXCESSIVELY.
   ELEMENT FINAL_PART-1.2013 IS DISTORTING EXCESSIVELY.
   ELEMENT FINAL_PART-1.2014 IS DISTORTING EXCESSIVELY.
   ELEMENT FINAL_PART-1.2016 IS DISTORTING EXCESSIVELY.
   ELEMENT FINAL_PART-1.2019 IS DISTORTING EXCESSIVELY.
   ELEMENT FINAL_PART-1.2020 IS DISTORTING EXCESSIVELY.
   ELEMENT FINAL_PART-1.2022 IS DISTORTING EXCESSIVELY.
   ELEMENT FINAL_PART-1.2023 IS DISTORTING EXCESSIVELY.
   ELEMENT FINAL_PART-1.2024 IS DISTORTING EXCESSIVELY.
   ELEMENT FINAL_PART-1.2027 IS DISTORTING EXCESSIVELY.
   ELEMENT FINAL_PART-1.2030 IS DISTORTING EXCESSIVELY.
   ELEMENT FINAL_PART-1.2034 IS DISTORTING EXCESSIVELY.
   ELEMENT FINAL_PART-1.2035 IS DISTORTING EXCESSIVELY.
   ELEMENT FINAL_PART-1.2036 IS DISTORTING EXCESSIVELY.
   ELEMENT FINAL_PART-1.2037 IS DISTORTING EXCESSIVELY.
   ELEMENT FINAL_PART-1.2041 IS DISTORTING EXCESSIVELY.
   ELEMENT FINAL_PART-1.2045 IS DISTORTING EXCESSIVELY.
   ELEMENT FINAL_PART-1.2049 IS DISTORTING EXCESSIVELY.
   ELEMENT FINAL_PART-1.2051 IS DISTORTING EXCESSIVELY.
   ELEMENT FINAL_PART-1.2052 IS DISTORTING EXCESSIVELY.
   ELEMENT FINAL_PART-1.2054 IS DISTORTING EXCESSIVELY.
   ELEMENT FINAL_PART-1.2055 IS DISTORTING EXCESSIVELY.
   ELEMENT FINAL_PART-1.2058 IS DISTORTING EXCESSIVELY.
   ELEMENT FINAL_PART-1.2063 IS DISTORTING EXCESSIVELY.
   ELEMENT FINAL_PART-1.2064 IS DISTORTING EXCESSIVELY.
   ELEMENT FINAL_PART-1.2065 IS DISTORTING EXCESSIVELY.
   ELEMENT FINAL_PART-1.2068 IS DISTORTING EXCESSIVELY.
   ELEMENT FINAL_PART-1.2074 IS DISTORTING EXCESSIVELY.
   ELEMENT FINAL_PART-1.2076 IS DISTORTING EXCESSIVELY.
   ELEMENT FINAL_PART-1.2078 IS DISTORTING EXCESSIVELY.
   ELEMENT FINAL_PART-1.2079 IS DISTORTING EXCESSIVELY.
   ELEMENT FINAL_PART-1.2080 IS DISTORTING EXCESSIVELY.
   ELEMENT FINAL_PART-1.2083 IS DISTORTING EXCESSIVELY.
   ELEMENT FINAL_PART-1.2087 IS DISTORTING EXCESSIVELY.
   ELEMENT FINAL_PART-1.2090 IS DISTORTING EXCESSIVELY.
   ELEMENT FINAL_PART-1.2092 IS DISTORTING EXCESSIVELY.
   ELEMENT FINAL_PART-1.2093 IS DISTORTING EXCESSIVELY.
   ELEMENT FINAL_PART-1.2094 IS DISTORTING EXCESSIVELY.
   ELEMENT FINAL_PART-1.2096 IS DISTORTING EXCESSIVELY.
   ELEMENT FINAL_PART-1.2097 IS DISTORTING EXCESSIVELY.
   ELEMENT FINAL_PART-1.2101 IS DISTORTING EXCESSIVELY.
   ELEMENT FINAL_PART-1.2102 IS DISTORTING EXCESSIVELY.
   ELEMENT FINAL_PART-1.2103 IS DISTORTING EXCESSIVELY.
   ELEMENT FINAL_PART-1.2104 IS DISTORTING EXCESSIVELY.
   ELEMENT FINAL_PART-1.2105 IS DISTORTING EXCESSIVELY.
   ELEMENT FINAL_PART-1.2107 IS DISTORTING EXCESSIVELY.
   ELEMENT FINAL_PART-1.2108 IS DISTORTING EXCESSIVELY.
   ELEMENT FINAL_PART-1.2110 IS DISTORTING EXCESSIVELY.
   ELEMENT FINAL_PART-1.2111 IS DISTORTING EXCESSIVELY.
   ELEMENT FINAL_PART-1.2113 IS DISTORTING EXCESSIVELY.
   ELEMENT FINAL_PART-1.2115 IS DISTORTING EXCESSIVELY.
   ELEMENT FINAL_PART-1.2116 IS DISTORTING EXCESSIVELY.
   ELEMENT FINAL_PART-1.2117 IS DISTORTING EXCESSIVELY.
   ELEMENT FINAL_PART-1.2118 IS DISTORTING EXCESSIVELY.
   ELEMENT FINAL_PART-1.2120 IS DISTORTING EXCESSIVELY.
   ELEMENT FINAL_PART-1.2121 IS DISTORTING EXCESSIVELY.
   ELEMENT FINAL_PART-1.2122 IS DISTORTING EXCESSIVELY.
   ELEMENT FINAL_PART-1.2123 IS DISTORTING EXCESSIVELY.
   ELEMENT FINAL_PART-1.2124 IS DISTORTING EXCESSIVELY.
   ELEMENT FINAL_PART-1.2125 IS DISTORTING EXCESSIVELY.
   ELEMENT FINAL_PART-1.2126 IS DISTORTING EXCESSIVELY.
   ELEMENT FINAL_PART-1.2132 IS DISTORTING EXCESSIVELY.
   ELEMENT FINAL_PART-1.2133 IS DISTORTING EXCESSIVELY.
   ELEMENT FINAL_PART-1.2135 IS DISTORTING EXCESSIVELY.
   ELEMENT FINAL_PART-1.2136 IS DISTORTING EXCESSIVELY.
   ELEMENT FINAL_PART-1.2137 IS DISTORTING EXCESSIVELY.
   ELEMENT FINAL_PART-1.2138 IS DISTORTING EXCESSIVELY.
   ELEMENT FINAL_PART-1.2140 IS DISTORTING EXCESSIVELY.
   ELEMENT FINAL_PART-1.2141 IS DISTORTING EXCESSIVELY.
   ELEMENT FINAL_PART-1.2142 IS DISTORTING EXCESSIVELY.
   ELEMENT FINAL_PART-1.2148 IS DISTORTING EXCESSIVELY.
   ELEMENT FINAL_PART-1.2150 IS DISTORTING EXCESSIVELY.
   ELEMENT FINAL_PART-1.2151 IS DISTORTING EXCESSIVELY.
   ELEMENT FINAL_PART-1.2152 IS DISTORTING EXCESSIVELY.
   ELEMENT FINAL_PART-1.2155 IS DISTORTING EXCESSIVELY.
   ELEMENT FINAL_PART-1.2156 IS DISTORTING EXCESSIVELY.
   ELEMENT FINAL_PART-1.2157 IS DISTORTING EXCESSIVELY.
   ELEMENT FINAL_PART-1.2161 IS DISTORTING EXCESSIVELY.
   ELEMENT FINAL_PART-1.2162 IS DISTORTING EXCESSIVELY.
   ELEMENT FINAL_PART-1.2163 IS DISTORTING EXCESSIVELY.
   ELEMENT FINAL_PART-1.2164 IS DISTORTING EXCESSIVELY.
   ELEMENT FINAL_PART-1.2165 IS DISTORTING EXCESSIVELY.
   ELEMENT FINAL_PART-1.2169 IS DISTORTING EXCESSIVELY.
   ELEMENT FINAL_PART-1.2171 IS DISTORTING EXCESSIVELY.
   ELEMENT FINAL_PART-1.2172 IS DISTORTING EXCESSIVELY.
   ELEMENT FINAL_PART-1.2173 IS DISTORTING EXCESSIVELY.
   ELEMENT FINAL_PART-1.2174 IS DISTORTING EXCESSIVELY.
   ELEMENT FINAL_PART-1.2175 IS DISTORTING EXCESSIVELY.
   ELEMENT FINAL_PART-1.2176 IS DISTORTING EXCESSIVELY.
   ELEMENT FINAL_PART-1.2178 IS DISTORTING EXCESSIVELY.
   ELEMENT FINAL_PART-1.2179 IS DISTORTING EXCESSIVELY.
   ELEMENT FINAL_PART-1.2180 IS DISTORTING EXCESSIVELY.
   ELEMENT FINAL_PART-1.2184 IS DISTORTING EXCESSIVELY.
   ELEMENT FINAL_PART-1.2186 IS DISTORTING EXCESSIVELY.
   ELEMENT FINAL_PART-1.2187 IS DISTORTING EXCESSIVELY.
   ELEMENT FINAL_PART-1.2188 IS DISTORTING EXCESSIVELY.
   ELEMENT FINAL_PART-1.2190 IS DISTORTING EXCESSIVELY.
   ELEMENT FINAL_PART-1.2191 IS DISTORTING EXCESSIVELY.
   ELEMENT FINAL_PART-1.2193 IS DISTORTING EXCESSIVELY.
   ELEMENT FINAL_PART-1.2194 IS DISTORTING EXCESSIVELY.
   ELEMENT FINAL_PART-1.2198 IS DISTORTING EXCESSIVELY.
   ELEMENT FINAL_PART-1.2200 IS DISTORTING EXCESSIVELY.
   ELEMENT FINAL_PART-1.2201 IS DISTORTING EXCESSIVELY.
   ELEMENT FINAL_PART-1.2202 IS DISTORTING EXCESSIVELY.
   ELEMENT FINAL_PART-1.2205 IS DISTORTING EXCESSIVELY.
   ELEMENT FINAL_PART-1.2207 IS DISTORTING EXCESSIVELY.
   ELEMENT FINAL_PART-1.2208 IS DISTORTING EXCESSIVELY.
   ELEMENT FINAL_PART-1.2213 IS DISTORTING EXCESSIVELY.
   ELEMENT FINAL_PART-1.2214 IS DISTORTING EXCESSIVELY.
   ELEMENT FINAL_PART-1.2218 IS DISTORTING EXCESSIVELY.
   ELEMENT FINAL_PART-1.2219 IS DISTORTING EXCESSIVELY.
   ELEMENT FINAL_PART-1.2220 IS DISTORTING EXCESSIVELY.
   ELEMENT FINAL_PART-1.2222 IS DISTORTING EXCESSIVELY.
   ELEMENT FINAL_PART-1.2223 IS DISTORTING EXCESSIVELY.
   ELEMENT FINAL_PART-1.2225 IS DISTORTING EXCESSIVELY.
   ELEMENT FINAL_PART-1.2226 IS DISTORTING EXCESSIVELY.
   ELEMENT FINAL_PART-1.2227 IS DISTORTING EXCESSIVELY.
   ELEMENT FINAL_PART-1.2229 IS DISTORTING EXCESSIVELY.
   ELEMENT FINAL_PART-1.2230 IS DISTORTING EXCESSIVELY.
   ELEMENT FINAL_PART-1.2231 IS DISTORTING EXCESSIVELY.
   ELEMENT FINAL_PART-1.2232 IS DISTORTING EXCESSIVELY.
   ELEMENT FINAL_PART-1.2233 IS DISTORTING EXCESSIVELY.
   ELEMENT FINAL_PART-1.2235 IS DISTORTING EXCESSIVELY.
   ELEMENT FINAL_PART-1.2237 IS DISTORTING EXCESSIVELY.
   ELEMENT FINAL_PART-1.2238 IS DISTORTING EXCESSIVELY.
   ELEMENT FINAL_PART-1.2239 IS DISTORTING EXCESSIVELY.
   ELEMENT FINAL_PART-1.2240 IS DISTORTING EXCESSIVELY.
   ELEMENT FINAL_PART-1.2241 IS DISTORTING EXCESSIVELY.
   ELEMENT FINAL_PART-1.2242 IS DISTORTING EXCESSIVELY.
   ELEMENT FINAL_PART-1.2244 IS DISTORTING EXCESSIVELY.
   ELEMENT FINAL_PART-1.2245 IS DISTORTING EXCESSIVELY.
   ELEMENT FINAL_PART-1.2247 IS DISTORTING EXCESSIVELY.
   ELEMENT FINAL_PART-1.2248 IS DISTORTING EXCESSIVELY.
   ELEMENT FINAL_PART-1.2252 IS DISTORTING EXCESSIVELY.
   ELEMENT FINAL_PART-1.2254 IS DISTORTING EXCESSIVELY.
   ELEMENT FINAL_PART-1.2255 IS DISTORTING EXCESSIVELY.
   ELEMENT FINAL_PART-1.2257 IS DISTORTING EXCESSIVELY.
   ELEMENT FINAL_PART-1.2261 IS DISTORTING EXCESSIVELY.
   ELEMENT FINAL_PART-1.2262 IS DISTORTING EXCESSIVELY.
   ELEMENT FINAL_PART-1.2263 IS DISTORTING EXCESSIVELY.
   ELEMENT FINAL_PART-1.2264 IS DISTORTING EXCESSIVELY.
   ELEMENT FINAL_PART-1.2265 IS DISTORTING EXCESSIVELY.
   ELEMENT FINAL_PART-1.2266 IS DISTORTING EXCESSIVELY.
   ELEMENT FINAL_PART-1.2268 IS DISTORTING EXCESSIVELY.
   ELEMENT FINAL_PART-1.2270 IS DISTORTING EXCESSIVELY.
   ELEMENT FINAL_PART-1.2271 IS DISTORTING EXCESSIVELY.
   ELEMENT FINAL_PART-1.2272 IS DISTORTING EXCESSIVELY.
   ELEMENT FINAL_PART-1.2274 IS DISTORTING EXCESSIVELY.
   ELEMENT FINAL_PART-1.2275 IS DISTORTING EXCESSIVELY.
   ELEMENT FINAL_PART-1.2276 IS DISTORTING EXCESSIVELY.
   ELEMENT FINAL_PART-1.2277 IS DISTORTING EXCESSIVELY.
   ELEMENT FINAL_PART-1.2283 IS DISTORTING EXCESSIVELY.
   ELEMENT FINAL_PART-1.2284 IS DISTORTING EXCESSIVELY.
   ELEMENT FINAL_PART-1.2285 IS DISTORTING EXCESSIVELY.
   ELEMENT FINAL_PART-1.2288 IS DISTORTING EXCESSIVELY.
   ELEMENT FINAL_PART-1.2290 IS DISTORTING EXCESSIVELY.
   ELEMENT FINAL_PART-1.2294 IS DISTORTING EXCESSIVELY.
   ELEMENT FINAL_PART-1.2297 IS DISTORTING EXCESSIVELY.
   ELEMENT FINAL_PART-1.2299 IS DISTORTING EXCESSIVELY.
   ELEMENT FINAL_PART-1.2300 IS DISTORTING EXCESSIVELY.
   ELEMENT FINAL_PART-1.2301 IS DISTORTING EXCESSIVELY.
   ELEMENT FINAL_PART-1.2305 IS DISTORTING EXCESSIVELY.
   ELEMENT FINAL_PART-1.2307 IS DISTORTING EXCESSIVELY.
   ELEMENT FINAL_PART-1.2309 IS DISTORTING EXCESSIVELY.
   ELEMENT FINAL_PART-1.2310 IS DISTORTING EXCESSIVELY.
   ELEMENT FINAL_PART-1.2311 IS DISTORTING EXCESSIVELY.
   ELEMENT FINAL_PART-1.2315 IS DISTORTING EXCESSIVELY.
   ELEMENT FINAL_PART-1.2317 IS DISTORTING EXCESSIVELY.
   ELEMENT FINAL_PART-1.2318 IS DISTORTING EXCESSIVELY.
   ELEMENT FINAL_PART-1.2319 IS DISTORTING EXCESSIVELY.
   ELEMENT FINAL_PART-1.2320 IS DISTORTING EXCESSIVELY.
   ELEMENT FINAL_PART-1.2322 IS DISTORTING EXCESSIVELY.
   ELEMENT FINAL_PART-1.2324 IS DISTORTING EXCESSIVELY.
   ELEMENT FINAL_PART-1.2326 IS DISTORTING EXCESSIVELY.
   ELEMENT FINAL_PART-1.2329 IS DISTORTING EXCESSIVELY.
   ELEMENT FINAL_PART-1.2330 IS DISTORTING EXCESSIVELY.
   ELEMENT FINAL_PART-1.2332 IS DISTORTING EXCESSIVELY.
   ELEMENT FINAL_PART-1.2333 IS DISTORTING EXCESSIVELY.
   ELEMENT FINAL_PART-1.2335 IS DISTORTING EXCESSIVELY.
   ELEMENT FINAL_PART-1.2336 IS DISTORTING EXCESSIVELY.
   ELEMENT FINAL_PART-1.2339 IS DISTORTING EXCESSIVELY.
   ELEMENT FINAL_PART-1.2340 IS DISTORTING EXCESSIVELY.
   ELEMENT FINAL_PART-1.2341 IS DISTORTING EXCESSIVELY.
   ELEMENT FINAL_PART-1.2345 IS DISTORTING EXCESSIVELY.
   ELEMENT FINAL_PART-1.2346 IS DISTORTING EXCESSIVELY.
   ELEMENT FINAL_PART-1.2347 IS DISTORTING EXCESSIVELY.
   ELEMENT FINAL_PART-1.2348 IS DISTORTING EXCESSIVELY.
   ELEMENT FINAL_PART-1.2350 IS DISTORTING EXCESSIVELY.
   ELEMENT FINAL_PART-1.2351 IS DISTORTING EXCESSIVELY.
   ELEMENT FINAL_PART-1.2353 IS DISTORTING EXCESSIVELY.
   ELEMENT FINAL_PART-1.2354 IS DISTORTING EXCESSIVELY.
   ELEMENT FINAL_PART-1.2355 IS DISTORTING EXCESSIVELY.
   ELEMENT FINAL_PART-1.2357 IS DISTORTING EXCESSIVELY.
   ELEMENT FINAL_PART-1.2358 IS DISTORTING EXCESSIVELY.
   ELEMENT FINAL_PART-1.2359 IS DISTORTING EXCESSIVELY.
   ELEMENT FINAL_PART-1.2361 IS DISTORTING EXCESSIVELY.
   ELEMENT FINAL_PART-1.2362 IS DISTORTING EXCESSIVELY.
   ELEMENT FINAL_PART-1.2363 IS DISTORTING EXCESSIVELY.
   ELEMENT FINAL_PART-1.2364 IS DISTORTING EXCESSIVELY.
   ELEMENT FINAL_PART-1.2365 IS DISTORTING EXCESSIVELY.
   ELEMENT FINAL_PART-1.2366 IS DISTORTING EXCESSIVELY.
   ELEMENT FINAL_PART-1.2368 IS DISTORTING EXCESSIVELY.
   ELEMENT FINAL_PART-1.2370 IS DISTORTING EXCESSIVELY.
   ELEMENT FINAL_PART-1.2371 IS DISTORTING EXCESSIVELY.
   ELEMENT FINAL_PART-1.2375 IS DISTORTING EXCESSIVELY.
   ELEMENT FINAL_PART-1.2378 IS DISTORTING EXCESSIVELY.
   ELEMENT FINAL_PART-1.2379 IS DISTORTING EXCESSIVELY.
   ELEMENT FINAL_PART-1.2383 IS DISTORTING EXCESSIVELY.
   ELEMENT FINAL_PART-1.2385 IS DISTORTING EXCESSIVELY.
   ELEMENT FINAL_PART-1.2387 IS DISTORTING EXCESSIVELY.
   ELEMENT FINAL_PART-1.2388 IS DISTORTING EXCESSIVELY.
   ELEMENT FINAL_PART-1.2389 IS DISTORTING EXCESSIVELY.
   ELEMENT FINAL_PART-1.2390 IS DISTORTING EXCESSIVELY.
   ELEMENT FINAL_PART-1.2391 IS DISTORTING EXCESSIVELY.
   ELEMENT FINAL_PART-1.2395 IS DISTORTING EXCESSIVELY.
   ELEMENT FINAL_PART-1.2396 IS DISTORTING EXCESSIVELY.
   ELEMENT FINAL_PART-1.2402 IS DISTORTING EXCESSIVELY.
   ELEMENT FINAL_PART-1.2404 IS DISTORTING EXCESSIVELY.
   ELEMENT FINAL_PART-1.2405 IS DISTORTING EXCESSIVELY.
   ELEMENT FINAL_PART-1.2409 IS DISTORTING EXCESSIVELY.
   ELEMENT FINAL_PART-1.2417 IS DISTORTING EXCESSIVELY.
   ELEMENT FINAL_PART-1.2418 IS DISTORTING EXCESSIVELY.
   ELEMENT FINAL_PART-1.2420 IS DISTORTING EXCESSIVELY.
   ELEMENT FINAL_PART-1.2422 IS DISTORTING EXCESSIVELY.
   ELEMENT FINAL_PART-1.2423 IS DISTORTING EXCESSIVELY.
   ELEMENT FINAL_PART-1.2424 IS DISTORTING EXCESSIVELY.
   ELEMENT FINAL_PART-1.2427 IS DISTORTING EXCESSIVELY.
   ELEMENT FINAL_PART-1.2431 IS DISTORTING EXCESSIVELY.
   ELEMENT FINAL_PART-1.2432 IS DISTORTING EXCESSIVELY.
   ELEMENT FINAL_PART-1.2437 IS DISTORTING EXCESSIVELY.
   ELEMENT FINAL_PART-1.2440 IS DISTORTING EXCESSIVELY.
   ELEMENT FINAL_PART-1.2443 IS DISTORTING EXCESSIVELY.
   ELEMENT FINAL_PART-1.2444 IS DISTORTING EXCESSIVELY.
   ELEMENT FINAL_PART-1.2445 IS DISTORTING EXCESSIVELY.
   ELEMENT FINAL_PART-1.2447 IS DISTORTING EXCESSIVELY.
   ELEMENT FINAL_PART-1.2448 IS DISTORTING EXCESSIVELY.
   ELEMENT FINAL_PART-1.2452 IS DISTORTING EXCESSIVELY.
   ELEMENT FINAL_PART-1.2457 IS DISTORTING EXCESSIVELY.
   ELEMENT FINAL_PART-1.2458 IS DISTORTING EXCESSIVELY.
   ELEMENT FINAL_PART-1.2462 IS DISTORTING EXCESSIVELY.
   ELEMENT FINAL_PART-1.2463 IS DISTORTING EXCESSIVELY.
   ELEMENT FINAL_PART-1.2464 IS DISTORTING EXCESSIVELY.
   ELEMENT FINAL_PART-1.2467 IS DISTORTING EXCESSIVELY.
   ELEMENT FINAL_PART-1.2468 IS DISTORTING EXCESSIVELY.
   ELEMENT FINAL_PART-1.2469 IS DISTORTING EXCESSIVELY.
   ELEMENT FINAL_PART-1.2470 IS DISTORTING EXCESSIVELY.
   ELEMENT FINAL_PART-1.2471 IS DISTORTING EXCESSIVELY.
   ELEMENT FINAL_PART-1.2475 IS DISTORTING EXCESSIVELY.
   ELEMENT FINAL_PART-1.2476 IS DISTORTING EXCESSIVELY.
   ELEMENT FINAL_PART-1.2478 IS DISTORTING EXCESSIVELY.
   ELEMENT FINAL_PART-1.2487 IS DISTORTING EXCESSIVELY.
   ELEMENT FINAL_PART-1.2488 IS DISTORTING EXCESSIVELY.
   ELEMENT FINAL_PART-1.2490 IS DISTORTING EXCESSIVELY.
   ELEMENT FINAL_PART-1.2492 IS DISTORTING EXCESSIVELY.
   ELEMENT FINAL_PART-1.2493 IS DISTORTING EXCESSIVELY.
   ELEMENT FINAL_PART-1.2494 IS DISTORTING EXCESSIVELY.
   ELEMENT FINAL_PART-1.2495 IS DISTORTING EXCESSIVELY.
   ELEMENT FINAL_PART-1.2499 IS DISTORTING EXCESSIVELY.
   ELEMENT FINAL_PART-1.2500 IS DISTORTING EXCESSIVELY.
   ELEMENT FINAL_PART-1.2501 IS DISTORTING EXCESSIVELY.
   ELEMENT FINAL_PART-1.2505 IS DISTORTING EXCESSIVELY.
   ELEMENT FINAL_PART-1.2507 IS DISTORTING EXCESSIVELY.
   ELEMENT FINAL_PART-1.2510 IS DISTORTING EXCESSIVELY.
   ELEMENT FINAL_PART-1.2511 IS DISTORTING EXCESSIVELY.
   ELEMENT FINAL_PART-1.2512 IS DISTORTING EXCESSIVELY.
   ELEMENT FINAL_PART-1.2515 IS DISTORTING EXCESSIVELY.
   ELEMENT FINAL_PART-1.2518 IS DISTORTING EXCESSIVELY.
   ELEMENT FINAL_PART-1.2519 IS DISTORTING EXCESSIVELY.
   ELEMENT FINAL_PART-1.2521 IS DISTORTING EXCESSIVELY.
   ELEMENT FINAL_PART-1.2522 IS DISTORTING EXCESSIVELY.
   ELEMENT FINAL_PART-1.2523 IS DISTORTING EXCESSIVELY.
   ELEMENT FINAL_PART-1.2524 IS DISTORTING EXCESSIVELY.
   ELEMENT FINAL_PART-1.2528 IS DISTORTING EXCESSIVELY.
   ELEMENT FINAL_PART-1.2529 IS DISTORTING EXCESSIVELY.
   ELEMENT FINAL_PART-1.2530 IS DISTORTING EXCESSIVELY.
   ELEMENT FINAL_PART-1.2533 IS DISTORTING EXCESSIVELY.
   ELEMENT FINAL_PART-1.2534 IS DISTORTING EXCESSIVELY.
   ELEMENT FINAL_PART-1.2537 IS DISTORTING EXCESSIVELY.
   ELEMENT FINAL_PART-1.2542 IS DISTORTING EXCESSIVELY.
   ELEMENT FINAL_PART-1.2543 IS DISTORTING EXCESSIVELY.
   ELEMENT FINAL_PART-1.2544 IS DISTORTING EXCESSIVELY.
   ELEMENT FINAL_PART-1.2545 IS DISTORTING EXCESSIVELY.
   ELEMENT FINAL_PART-1.2546 IS DISTORTING EXCESSIVELY.
   ELEMENT FINAL_PART-1.2549 IS DISTORTING EXCESSIVELY.
   ELEMENT FINAL_PART-1.2550 IS DISTORTING EXCESSIVELY.
   ELEMENT FINAL_PART-1.2551 IS DISTORTING EXCESSIVELY.
   ELEMENT FINAL_PART-1.2553 IS DISTORTING EXCESSIVELY.
   ELEMENT FINAL_PART-1.2554 IS DISTORTING EXCESSIVELY.
   ELEMENT FINAL_PART-1.2555 IS DISTORTING EXCESSIVELY.
   ELEMENT FINAL_PART-1.2556 IS DISTORTING EXCESSIVELY.
   ELEMENT FINAL_PART-1.2557 IS DISTORTING EXCESSIVELY.
   ELEMENT FINAL_PART-1.2564 IS DISTORTING EXCESSIVELY.
   ELEMENT FINAL_PART-1.2565 IS DISTORTING EXCESSIVELY.
   ELEMENT FINAL_PART-1.2566 IS DISTORTING EXCESSIVELY.
   ELEMENT FINAL_PART-1.2570 IS DISTORTING EXCESSIVELY.
   ELEMENT FINAL_PART-1.2574 IS DISTORTING EXCESSIVELY.
   ELEMENT FINAL_PART-1.2576 IS DISTORTING EXCESSIVELY.
   ELEMENT FINAL_PART-1.2577 IS DISTORTING EXCESSIVELY.
   ELEMENT FINAL_PART-1.2579 IS DISTORTING EXCESSIVELY.
   ELEMENT FINAL_PART-1.2582 IS DISTORTING EXCESSIVELY.
   ELEMENT FINAL_PART-1.2584 IS DISTORTING EXCESSIVELY.
   ELEMENT FINAL_PART-1.2587 IS DISTORTING EXCESSIVELY.
   ELEMENT FINAL_PART-1.2588 IS DISTORTING EXCESSIVELY.
   ELEMENT FINAL_PART-1.2589 IS DISTORTING EXCESSIVELY.
   ELEMENT FINAL_PART-1.2590 IS DISTORTING EXCESSIVELY.
   ELEMENT FINAL_PART-1.2592 IS DISTORTING EXCESSIVELY.
   ELEMENT FINAL_PART-1.2593 IS DISTORTING EXCESSIVELY.
   ELEMENT FINAL_PART-1.2599 IS DISTORTING EXCESSIVELY.
   ELEMENT FINAL_PART-1.2600 IS DISTORTING EXCESSIVELY.
   ELEMENT FINAL_PART-1.2601 IS DISTORTING EXCESSIVELY.
   ELEMENT FINAL_PART-1.2602 IS DISTORTING EXCESSIVELY.
   ELEMENT FINAL_PART-1.2603 IS DISTORTING EXCESSIVELY.
   ELEMENT FINAL_PART-1.2604 IS DISTORTING EXCESSIVELY.
   ELEMENT FINAL_PART-1.2606 IS DISTORTING EXCESSIVELY.
   ELEMENT FINAL_PART-1.2607 IS DISTORTING EXCESSIVELY.
   ELEMENT FINAL_PART-1.2610 IS DISTORTING EXCESSIVELY.
   ELEMENT FINAL_PART-1.2611 IS DISTORTING EXCESSIVELY.
   ELEMENT FINAL_PART-1.2612 IS DISTORTING EXCESSIVELY.
   ELEMENT FINAL_PART-1.2615 IS DISTORTING EXCESSIVELY.
   ELEMENT FINAL_PART-1.2616 IS DISTORTING EXCESSIVELY.
   ELEMENT FINAL_PART-1.2620 IS DISTORTING EXCESSIVELY.
[...]
 
	SYMMETRIC PURE THREAD-BASED DIRECT SPARSE SOLVER RUNNING ON
 	1 HOST x 1 MPI RANK PER HOST x 1 THREAD PER RANK
        NUMBER OF EQUATIONS:  494706
        NUMBER OF RHS:        1
        NUMBER OF FLOPS:      1.131e+11
        SOLVER ELAPSED TIME:  6.6s

               CONVERGENCE CHECKS FOR EQUILIBRIUM ITERATION     1


 AVERAGE FORCE                      0.162       TIME AVG. FORCE       0.107    
 LARGEST SCALED RESIDUAL FORCE       1.57       AT NODE        849   DOF  2
   INSTANCE: FINAL_PART-1                                                                    
  CORRESPONDING RESIDUAL FORCE       1.57    
 LARGEST INCREMENT OF DISP.        -2.850E-03   AT NODE        228   DOF  1
   INSTANCE: FINAL_PART-1                                                                    
 LARGEST CORRECTION TO DISP.        3.016E-04   AT NODE        235   DOF  2
   INSTANCE: FINAL_PART-1                                                                    
          FORCE     EQUILIBRIUM NOT ACHIEVED WITHIN TOLERANCE.
 
	SYMMETRIC PURE THREAD-BASED DIRECT SPARSE SOLVER RUNNING ON
 	1 HOST x 1 MPI RANK PER HOST x 1 THREAD PER RANK
        NUMBER OF EQUATIONS:  494706
        NUMBER OF RHS:        1
        NUMBER OF FLOPS:      1.131e+11
        SOLVER ELAPSED TIME:  6.6s
 

 ***WARNING: THE SYSTEM MATRIX HAS 3 NEGATIVE EIGENVALUES.
             EXPLANATIONS ARE SUGGESTED AFTER THE FIRST OCCURRENCE OF THIS MESSAGE.

               CONVERGENCE CHECKS FOR EQUILIBRIUM ITERATION     2


 AVERAGE FORCE                      0.161       TIME AVG. FORCE       0.107    
 LARGEST SCALED RESIDUAL FORCE      -1.28       AT NODE       1080   DOF  1
   INSTANCE: FINAL_PART-1                                                                    
  CORRESPONDING RESIDUAL FORCE      -1.28    
 LARGEST INCREMENT OF DISP.        -2.721E-03   AT NODE        228   DOF  1
   INSTANCE: FINAL_PART-1                                                                    
 LARGEST CORRECTION TO DISP.        2.017E-04   AT NODE         43   DOF  2
   INSTANCE: FINAL_PART-1                                                                    
          FORCE     EQUILIBRIUM NOT ACHIEVED WITHIN TOLERANCE.
 
	SYMMETRIC PURE THREAD-BASED DIRECT SPARSE SOLVER RUNNING ON
 	1 HOST x 1 MPI RANK PER HOST x 1 THREAD PER RANK
        NUMBER OF EQUATIONS:  494706
        NUMBER OF RHS:        1
        NUMBER OF FLOPS:      1.131e+11
        SOLVER ELAPSED TIME:  6.7s

               CONVERGENCE CHECKS FOR EQUILIBRIUM ITERATION     3


 AVERAGE FORCE                      0.162       TIME AVG. FORCE       0.107    
 LARGEST SCALED RESIDUAL FORCE     -0.362       AT NODE        847   DOF  2
   INSTANCE: FINAL_PART-1                                                                    
  CORRESPONDING RESIDUAL FORCE     -0.362    
 LARGEST INCREMENT OF DISP.        -2.705E-03   AT NODE        228   DOF  1
   INSTANCE: FINAL_PART-1                                                                    
 LARGEST CORRECTION TO DISP.       -1.641E-04   AT NODE        236   DOF  2
   INSTANCE: FINAL_PART-1                                                                    
          FORCE     EQUILIBRIUM NOT ACHIEVED WITHIN TOLERANCE.
 
	SYMMETRIC PURE THREAD-BASED DIRECT SPARSE SOLVER RUNNING ON
 	1 HOST x 1 MPI RANK PER HOST x 1 THREAD PER RANK
        NUMBER OF EQUATIONS:  494706
        NUMBER OF RHS:        1
        NUMBER OF FLOPS:      1.131e+11
        SOLVER ELAPSED TIME:  6.6s

               CONVERGENCE CHECKS FOR EQUILIBRIUM ITERATION     4


 AVERAGE FORCE                      0.162       TIME AVG. FORCE       0.107    
 LARGEST SCALED RESIDUAL FORCE     -0.140       AT NODE       1080   DOF  1
   INSTANCE: FINAL_PART-1                                                                    
  CORRESPONDING RESIDUAL FORCE     -0.140    
 LARGEST INCREMENT OF DISP.        -2.762E-03   AT NODE        228   DOF  1
   INSTANCE: FINAL_PART-1                                                                    
 LARGEST CORRECTION TO DISP.       -7.712E-05   AT NODE       6360   DOF  2
   INSTANCE: FINAL_PART-1                                                                    
          FORCE     EQUILIBRIUM NOT ACHIEVED WITHIN TOLERANCE.
 
	SYMMETRIC PURE THREAD-BASED DIRECT SPARSE SOLVER RUNNING ON
 	1 HOST x 1 MPI RANK PER HOST x 1 THREAD PER RANK
        NUMBER OF EQUATIONS:  494706
        NUMBER OF RHS:        1
        NUMBER OF FLOPS:      1.131e+11
        SOLVER ELAPSED TIME:  6.7s

               CONVERGENCE CHECKS FOR EQUILIBRIUM ITERATION     5


 AVERAGE FORCE                      0.162       TIME AVG. FORCE       0.107    
 LARGEST SCALED RESIDUAL FORCE     -2.338E-02   AT NODE        849   DOF  2
   INSTANCE: FINAL_PART-1                                                                    
  CORRESPONDING RESIDUAL FORCE     -2.338E-02
 LARGEST INCREMENT OF DISP.        -2.813E-03   AT NODE        228   DOF  1
   INSTANCE: FINAL_PART-1                                                                    
 LARGEST CORRECTION TO DISP.       -5.173E-05   AT NODE        235   DOF  1
   INSTANCE: FINAL_PART-1                                                                    
          FORCE     EQUILIBRIUM NOT ACHIEVED WITHIN TOLERANCE.
 
	SYMMETRIC PURE THREAD-BASED DIRECT SPARSE SOLVER RUNNING ON
 	1 HOST x 1 MPI RANK PER HOST x 1 THREAD PER RANK
        NUMBER OF EQUATIONS:  494706
        NUMBER OF RHS:        1
        NUMBER OF FLOPS:      1.131e+11
        SOLVER ELAPSED TIME:  6.7s

               CONVERGENCE CHECKS FOR EQUILIBRIUM ITERATION     6


 AVERAGE FORCE                      0.162       TIME AVG. FORCE       0.107    
 LARGEST SCALED RESIDUAL FORCE     -1.814E-02   AT NODE        851   DOF  2
   INSTANCE: FINAL_PART-1                                                                    
  CORRESPONDING RESIDUAL FORCE     -1.814E-02
 LARGEST INCREMENT OF DISP.        -2.860E-03   AT NODE        228   DOF  1
   INSTANCE: FINAL_PART-1                                                                    
 LARGEST CORRECTION TO DISP.       -4.631E-05   AT NODE        235   DOF  1
   INSTANCE: FINAL_PART-1                                                                    
          FORCE     EQUILIBRIUM NOT ACHIEVED WITHIN TOLERANCE.
 
	SYMMETRIC PURE THREAD-BASED DIRECT SPARSE SOLVER RUNNING ON
 	1 HOST x 1 MPI RANK PER HOST x 1 THREAD PER RANK
        NUMBER OF EQUATIONS:  494706
        NUMBER OF RHS:        1
        NUMBER OF FLOPS:      1.131e+11
        SOLVER ELAPSED TIME:  6.7s

               CONVERGENCE CHECKS FOR EQUILIBRIUM ITERATION     7


 AVERAGE FORCE                      0.162       TIME AVG. FORCE       0.107    
 LARGEST SCALED RESIDUAL FORCE     -1.701E-02   AT NODE        851   DOF  2
   INSTANCE: FINAL_PART-1                                                                    
  CORRESPONDING RESIDUAL FORCE     -1.701E-02
 LARGEST INCREMENT OF DISP.        -2.901E-03   AT NODE        228   DOF  1
   INSTANCE: FINAL_PART-1                                                                    
 LARGEST CORRECTION TO DISP.       -4.154E-05   AT NODE        228   DOF  1
   INSTANCE: FINAL_PART-1                                                                    
          FORCE     EQUILIBRIUM NOT ACHIEVED WITHIN TOLERANCE.
 
	SYMMETRIC PURE THREAD-BASED DIRECT SPARSE SOLVER RUNNING ON
 	1 HOST x 1 MPI RANK PER HOST x 1 THREAD PER RANK
        NUMBER OF EQUATIONS:  494706
        NUMBER OF RHS:        1
        NUMBER OF FLOPS:      1.131e+11
        SOLVER ELAPSED TIME:  6.7s

               CONVERGENCE CHECKS FOR EQUILIBRIUM ITERATION     8


 AVERAGE FORCE                      0.162       TIME AVG. FORCE       0.107    
 LARGEST SCALED RESIDUAL FORCE     -1.140E-02   AT NODE        851   DOF  2
   INSTANCE: FINAL_PART-1                                                                    
  CORRESPONDING RESIDUAL FORCE     -1.140E-02
 LARGEST INCREMENT OF DISP.        -2.935E-03   AT NODE        228   DOF  1
   INSTANCE: FINAL_PART-1                                                                    
 LARGEST CORRECTION TO DISP.       -3.410E-05   AT NODE        228   DOF  1
   INSTANCE: FINAL_PART-1                                                                    
          FORCE     EQUILIBRIUM NOT ACHIEVED WITHIN TOLERANCE.
 
	SYMMETRIC PURE THREAD-BASED DIRECT SPARSE SOLVER RUNNING ON
 	1 HOST x 1 MPI RANK PER HOST x 1 THREAD PER RANK
        NUMBER OF EQUATIONS:  494706
        NUMBER OF RHS:        1
        NUMBER OF FLOPS:      1.131e+11
        SOLVER ELAPSED TIME:  6.7s

               CONVERGENCE CHECKS FOR EQUILIBRIUM ITERATION     9


 AVERAGE FORCE                      0.162       TIME AVG. FORCE       0.107    
 LARGEST SCALED RESIDUAL FORCE     -9.291E-03   AT NODE        851   DOF  2
   INSTANCE: FINAL_PART-1                                                                    
  CORRESPONDING RESIDUAL FORCE     -9.291E-03
 LARGEST INCREMENT OF DISP.        -2.966E-03   AT NODE        228   DOF  1
   INSTANCE: FINAL_PART-1                                                                    
 LARGEST CORRECTION TO DISP.       -3.063E-05   AT NODE        228   DOF  1
   INSTANCE: FINAL_PART-1                                                                    
          FORCE     EQUILIBRIUM NOT ACHIEVED WITHIN TOLERANCE.
 

 ***NOTE: THE RATE OF CONVERGENCE IS VERY SLOW. CONVERGENCE IS JUDGED UNLIKELY.


  INCREMENT    32 STARTS. ATTEMPT NUMBER  2, TIME INCREMENT  5.127E-03
 
	SYMMETRIC PURE THREAD-BASED DIRECT SPARSE SOLVER RUNNING ON
 	1 HOST x 1 MPI RANK PER HOST x 1 THREAD PER RANK
        NUMBER OF EQUATIONS:  494706
        NUMBER OF RHS:        1
        NUMBER OF FLOPS:      1.131e+11
        SOLVER ELAPSED TIME:  6.7s

               CONVERGENCE CHECKS FOR EQUILIBRIUM ITERATION     1


 AVERAGE FORCE                      0.161       TIME AVG. FORCE       0.107    
 LARGEST SCALED RESIDUAL FORCE      0.199       AT NODE        849   DOF  2
   INSTANCE: FINAL_PART-1                                                                    
  CORRESPONDING RESIDUAL FORCE      0.199    
 LARGEST INCREMENT OF DISP.        -1.441E-03   AT NODE        228   DOF  1
   INSTANCE: FINAL_PART-1                                                                    
 LARGEST CORRECTION TO DISP.        1.200E-04   AT NODE        235   DOF  2
   INSTANCE: FINAL_PART-1                                                                    
          FORCE     EQUILIBRIUM NOT ACHIEVED WITHIN TOLERANCE.
 
	SYMMETRIC PURE THREAD-BASED DIRECT SPARSE SOLVER RUNNING ON
 	1 HOST x 1 MPI RANK PER HOST x 1 THREAD PER RANK
        NUMBER OF EQUATIONS:  494706
        NUMBER OF RHS:        1
        NUMBER OF FLOPS:      1.131e+11
        SOLVER ELAPSED TIME:  7.0s
 

 ***WARNING: THE SYSTEM MATRIX HAS 1 NEGATIVE EIGENVALUES.
             EXPLANATIONS ARE SUGGESTED AFTER THE FIRST OCCURRENCE OF THIS MESSAGE.

               CONVERGENCE CHECKS FOR EQUILIBRIUM ITERATION     2


 AVERAGE FORCE                      0.161       TIME AVG. FORCE       0.107    
 LARGEST SCALED RESIDUAL FORCE      2.079E-02   AT NODE         14   DOF  1
   INSTANCE: FINAL_PART-1                                                                    
  CORRESPONDING RESIDUAL FORCE      2.079E-02
 LARGEST INCREMENT OF DISP.        -1.442E-03   AT NODE        228   DOF  1
   INSTANCE: FINAL_PART-1                                                                    
 LARGEST CORRECTION TO DISP.       -8.418E-06   AT NODE         46   DOF  2
   INSTANCE: FINAL_PART-1                                                                    
          FORCE     EQUILIBRIUM NOT ACHIEVED WITHIN TOLERANCE.
 
	SYMMETRIC PURE THREAD-BASED DIRECT SPARSE SOLVER RUNNING ON
 	1 HOST x 1 MPI RANK PER HOST x 1 THREAD PER RANK
        NUMBER OF EQUATIONS:  494706
        NUMBER OF RHS:        1
        NUMBER OF FLOPS:      1.131e+11
        SOLVER ELAPSED TIME:  6.7s

               CONVERGENCE CHECKS FOR EQUILIBRIUM ITERATION     3


 AVERAGE FORCE                      0.161       TIME AVG. FORCE       0.107    
 LARGEST SCALED RESIDUAL FORCE     -3.994E-02   AT NODE        847   DOF  2
   INSTANCE: FINAL_PART-1                                                                    
  CORRESPONDING RESIDUAL FORCE     -3.994E-02
 LARGEST INCREMENT OF DISP.        -1.504E-03   AT NODE        228   DOF  1
   INSTANCE: FINAL_PART-1                                                                    
 LARGEST CORRECTION TO DISP.       -6.150E-05   AT NODE        228   DOF  1
   INSTANCE: FINAL_PART-1                                                                    
          FORCE     EQUILIBRIUM NOT ACHIEVED WITHIN TOLERANCE.
 
	SYMMETRIC PURE THREAD-BASED DIRECT SPARSE SOLVER RUNNING ON
 	1 HOST x 1 MPI RANK PER HOST x 1 THREAD PER RANK
        NUMBER OF EQUATIONS:  494706
        NUMBER OF RHS:        1
        NUMBER OF FLOPS:      1.131e+11
        SOLVER ELAPSED TIME:  6.7s

               CONVERGENCE CHECKS FOR EQUILIBRIUM ITERATION     4


 AVERAGE FORCE                      0.161       TIME AVG. FORCE       0.107    
 LARGEST SCALED RESIDUAL FORCE     -1.303E-04   AT NODE         12   DOF  1
   INSTANCE: FINAL_PART-1                                                                    
  CORRESPONDING RESIDUAL FORCE     -1.303E-04
 LARGEST INCREMENT OF DISP.        -1.504E-03   AT NODE        228   DOF  1
   INSTANCE: FINAL_PART-1                                                                    
 LARGEST CORRECTION TO DISP.       -5.810E-07   AT NODE        228   DOF  1
   INSTANCE: FINAL_PART-1                                                                    
          THE FORCE     EQUILIBRIUM EQUATIONS HAVE CONVERGED

 ITERATION SUMMARY FOR THE INCREMENT:   4 TOTAL ITERATIONS, OF WHICH
   0 ARE SEVERE DISCONTINUITY ITERATIONS AND  4 ARE EQUILIBRIUM ITERATIONS.

 TIME INCREMENT COMPLETED  5.127E-03,  FRACTION OF STEP COMPLETED  0.995    
 STEP TIME COMPLETED       0.995    ,  TOTAL TIME COMPLETED        0.995    


  INCREMENT    33 STARTS. ATTEMPT NUMBER  1, TIME INCREMENT  5.127E-03
 
	SYMMETRIC PURE THREAD-BASED DIRECT SPARSE SOLVER RUNNING ON
 	1 HOST x 1 MPI RANK PER HOST x 1 THREAD PER RANK
        NUMBER OF EQUATIONS:  494706
        NUMBER OF RHS:        1
        NUMBER OF FLOPS:      1.131e+11
        SOLVER ELAPSED TIME:  6.6s

               CONVERGENCE CHECKS FOR EQUILIBRIUM ITERATION     1


 AVERAGE FORCE                      0.162       TIME AVG. FORCE       0.109    
 LARGEST SCALED RESIDUAL FORCE      7.077E-02   AT NODE        849   DOF  2
   INSTANCE: FINAL_PART-1                                                                    
  CORRESPONDING RESIDUAL FORCE      7.077E-02
 LARGEST INCREMENT OF DISP.        -1.470E-03   AT NODE        228   DOF  1
   INSTANCE: FINAL_PART-1                                                                    
 LARGEST CORRECTION TO DISP.        6.523E-05   AT NODE        235   DOF  2
   INSTANCE: FINAL_PART-1                                                                    
          FORCE     EQUILIBRIUM NOT ACHIEVED WITHIN TOLERANCE.
 
	SYMMETRIC PURE THREAD-BASED DIRECT SPARSE SOLVER RUNNING ON
 	1 HOST x 1 MPI RANK PER HOST x 1 THREAD PER RANK
        NUMBER OF EQUATIONS:  494706
        NUMBER OF RHS:        1
        NUMBER OF FLOPS:      1.131e+11
        SOLVER ELAPSED TIME:  6.6s
 

 ***WARNING: THE SYSTEM MATRIX HAS 1 NEGATIVE EIGENVALUES.
             EXPLANATIONS ARE SUGGESTED AFTER THE FIRST OCCURRENCE OF THIS MESSAGE.

               CONVERGENCE CHECKS FOR EQUILIBRIUM ITERATION     2


 AVERAGE FORCE                      0.162       TIME AVG. FORCE       0.109    
 LARGEST SCALED RESIDUAL FORCE      1.114E-02   AT NODE         14   DOF  1
   INSTANCE: FINAL_PART-1                                                                    
  CORRESPONDING RESIDUAL FORCE      1.114E-02
 LARGEST INCREMENT OF DISP.        -1.467E-03   AT NODE        228   DOF  1
   INSTANCE: FINAL_PART-1                                                                    
 LARGEST CORRECTION TO DISP.       -5.057E-06   AT NODE        236   DOF  2
   INSTANCE: FINAL_PART-1                                                                    
          FORCE     EQUILIBRIUM NOT ACHIEVED WITHIN TOLERANCE.
 
	SYMMETRIC PURE THREAD-BASED DIRECT SPARSE SOLVER RUNNING ON
 	1 HOST x 1 MPI RANK PER HOST x 1 THREAD PER RANK
        NUMBER OF EQUATIONS:  494706
        NUMBER OF RHS:        1
        NUMBER OF FLOPS:      1.131e+11
        SOLVER ELAPSED TIME:  6.7s

               CONVERGENCE CHECKS FOR EQUILIBRIUM ITERATION     3


 AVERAGE FORCE                      0.162       TIME AVG. FORCE       0.109    
 LARGEST SCALED RESIDUAL FORCE     -1.632E-02   AT NODE        849   DOF  2
   INSTANCE: FINAL_PART-1                                                                    
  CORRESPONDING RESIDUAL FORCE     -1.632E-02
 LARGEST INCREMENT OF DISP.        -1.507E-03   AT NODE        228   DOF  1
   INSTANCE: FINAL_PART-1                                                                    
 LARGEST CORRECTION TO DISP.       -3.993E-05   AT NODE        228   DOF  1
   INSTANCE: FINAL_PART-1                                                                    
          FORCE     EQUILIBRIUM NOT ACHIEVED WITHIN TOLERANCE.
 
	SYMMETRIC PURE THREAD-BASED DIRECT SPARSE SOLVER RUNNING ON
 	1 HOST x 1 MPI RANK PER HOST x 1 THREAD PER RANK
        NUMBER OF EQUATIONS:  494706
        NUMBER OF RHS:        1
        NUMBER OF FLOPS:      1.131e+11
        SOLVER ELAPSED TIME:  6.7s

               CONVERGENCE CHECKS FOR EQUILIBRIUM ITERATION     4


 AVERAGE FORCE                      0.162       TIME AVG. FORCE       0.109    
 LARGEST SCALED RESIDUAL FORCE     -7.752E-05   AT NODE         12   DOF  1
   INSTANCE: FINAL_PART-1                                                                    
  CORRESPONDING RESIDUAL FORCE     -7.752E-05
 LARGEST INCREMENT OF DISP.        -1.508E-03   AT NODE        228   DOF  1
   INSTANCE: FINAL_PART-1                                                                    
 LARGEST CORRECTION TO DISP.       -6.231E-07   AT NODE        228   DOF  1
   INSTANCE: FINAL_PART-1                                                                    
          THE FORCE     EQUILIBRIUM EQUATIONS HAVE CONVERGED

 ITERATION SUMMARY FOR THE INCREMENT:   4 TOTAL ITERATIONS, OF WHICH
   0 ARE SEVERE DISCONTINUITY ITERATIONS AND  4 ARE EQUILIBRIUM ITERATIONS.

 TIME INCREMENT COMPLETED  5.127E-03,  FRACTION OF STEP COMPLETED   1.00    
 STEP TIME COMPLETED        1.00    ,  TOTAL TIME COMPLETED         1.00    


          THE ANALYSIS HAS BEEN COMPLETED



     ANALYSIS SUMMARY:
     TOTAL OF         33  INCREMENTS
                       5  CUTBACKS IN AUTOMATIC INCREMENTATION
                     229  ITERATIONS INCLUDING CONTACT ITERATIONS IF PRESENT
                     229  PASSES THROUGH THE EQUATION SOLVER OF WHICH 
                     229  INVOLVE MATRIX DECOMPOSITION, INCLUDING
                       0  DECOMPOSITION(S) OF THE MASS MATRIX
                       1  REORDERING OF EQUATIONS TO MINIMIZE WAVEFRONT
                       0  ADDITIONAL RESIDUAL EVALUATIONS FOR LINE SEARCHES
                       0  ADDITIONAL OPERATOR EVALUATIONS FOR LINE SEARCHES
                       1  WARNING MESSAGES DURING USER INPUT PROCESSING
                      46  WARNING MESSAGES DURING ANALYSIS
                       0  ANALYSIS WARNINGS ARE NUMERICAL PROBLEM MESSAGES
                      44  ANALYSIS WARNINGS ARE NEGATIVE EIGENVALUE MESSAGES
                       0  ERROR MESSAGES



     JOB TIME SUMMARY
       USER TIME (SEC)      =     1.20E+04
       SYSTEM TIME (SEC)    =     1.12E+03
       TOTAL CPU TIME (SEC) =     1.32E+04
       WALLCLOCK TIME (SEC) =         3085
       MEMORY PEAK (GB)     =            0
