 Abaqus/Standard 2025                  DATE 25-Feb-2026 TIME 12:04:53
 SUMMARY OF JOB INFORMATION:
 STEP  INC ATT SEVERE EQUIL TOTAL  TOTAL      STEP       INC OF       DOF    IF
               DISCON ITERS ITERS  TIME/    TIME/LPF    TIME/LPF    MONITOR RIKS
               ITERS               FREQ
   1     1   1U    0     2     2  0.00       0.00       1.000     
   1     1   2U    0     3     3  0.00       0.00       0.2500    
   1     1   3     0     9     9  0.0625     0.0625     0.06250   
   1     2   1     0     5     5  0.125      0.125      0.06250   
   1     3   1     0     5     5  0.188      0.188      0.06250   
   1     4   1     0     5     5  0.250      0.250      0.06250   
   1     5   1     0     5     5  0.312      0.312      0.06250   
   1     6   1     0     5     5  0.375      0.375      0.06250   
   1     7   1     0     5     5  0.438      0.438      0.06250   
   1     8   1     0     5     5  0.500      0.500      0.06250   
   1     9   1     0     6     6  0.562      0.562      0.06250   
   1    10   1     0     7     7  0.625      0.625      0.06250   
   1    11   1     0     8     8  0.688      0.688      0.06250   
   1    12   1     0     9     9  0.750      0.750      0.06250   
   1    13   1U    0     7     7  0.750      0.750      0.06250   
   1    13   2     0     5     5  0.766      0.766      0.01562   
   1    14   1     0     4     4  0.781      0.781      0.01562   
   1    15   1     0     5     5  0.797      0.797      0.01562   
   1    16   1     0     5     5  0.812      0.812      0.01562   
   1    17   1     0     5     5  0.828      0.828      0.01562   
   1    18   1     0     7     7  0.844      0.844      0.01562   
   1    19   1     0     7     7  0.859      0.859      0.01562   
   1    20   1     0     6     6  0.875      0.875      0.01562   
   1    21   1U    0     8     8  0.875      0.875      0.01562   
   1    21   2     0     4     4  0.879      0.879      0.003906  
   1    22   1     0     4     4  0.883      0.883      0.003906  
   1    23   1     0     4     4  0.889      0.889      0.005859  
   1    24   1     0     4     4  0.897      0.897      0.008789  
   1    25   1     0     6     6  0.911      0.911      0.01318   
   1    26   1     0     9     9  0.924      0.924      0.01318   
   1    27   1     0     8     8  0.937      0.937      0.01318   
   1    28   1     0     8     8  0.950      0.950      0.01318   
   1    29   1     0     8     8  0.963      0.963      0.01318   
   1    30   1     0     9     9  0.977      0.977      0.01318   
   1    31   1     0    10    10  0.990      0.990      0.01318   
   1    32   1U    0     9     9  0.990      0.990      0.01025   
   1    32   2     0     4     4  0.995      0.995      0.005127  
   1    33   1     0     4     4  1.00       1.00       0.005127  
                          
 THE ANALYSIS HAS COMPLETED SUCCESSFULLY
