 Abaqus/Standard 2025                  DATE 24-Feb-2026 TIME 16:57:57
 SUMMARY OF JOB INFORMATION:
 STEP  INC ATT SEVERE EQUIL TOTAL  TOTAL      STEP       INC OF       DOF    IF
               DISCON ITERS ITERS  TIME/    TIME/LPF    TIME/LPF    MONITOR RIKS
               ITERS               FREQ
   1     1   1U    0     2     2  0.00       0.00       1.000     
   1     1   2U    0     3     3  0.00       0.00       0.2500    
   1     1   3     0     8     8  0.0625     0.0625     0.06250   
   1     2   1     0     5     5  0.125      0.125      0.06250   
   1     3   1     0     5     5  0.188      0.188      0.06250   
   1     4   1     0     5     5  0.250      0.250      0.06250   
   1     5   1     0     5     5  0.312      0.312      0.06250   
   1     6   1     0     4     4  0.375      0.375      0.06250   
   1     7   1     0     5     5  0.438      0.438      0.06250   
   1     8   1     0     5     5  0.500      0.500      0.06250   
                          
 THE ANALYSIS HAS NOT BEEN COMPLETED
