1

   Abaqus 2025                                  Date 24-Feb-2026   Time 16:54:44
   For use by UNIVERSITAET STUTTGART under license from Dassault Systemes or its subsidiary.

                                                                                 
                                                                                 
 STEP    1     INCREMENT     1     STEP TIME    0.00    


                        S T E P       1     S T A T I C   A N A L Y S I S


                                                                                          

     AUTOMATIC TIME CONTROL WITH -
          A SUGGESTED INITIAL TIME INCREMENT OF                 1.00    
          AND A TOTAL TIME PERIOD OF                            1.00    
          THE MINIMUM TIME INCREMENT ALLOWED IS                1.000E-05
          THE MAXIMUM TIME INCREMENT ALLOWED IS                 1.00    

     LINEAR EQUATION SOLVER TYPE         DIRECT SPARSE

 CONVERGENCE TOLERANCE PARAMETERS FOR FORCE    
     CRITERION FOR RESIDUAL FORCE     FOR A NONLINEAR PROBLEM          5.000E-03
     CRITERION FOR DISP.    CORRECTION IN A NONLINEAR PROBLEM          1.000E-02
     INITIAL VALUE OF TIME AVERAGE FORCE                               1.000E-02
     AVERAGE FORCE     IS TIME AVERAGE FORCE    
     ALTERNATE CRIT. FOR RESIDUAL FORCE     FOR A NONLINEAR PROBLEM    2.000E-02
     CRITERION FOR ZERO FORCE     RELATIVE TO TIME AVRG. FORCE         1.000E-05
     CRITERION FOR RESIDUAL FORCE     WHEN THERE IS ZERO FLUX          1.000E-05
     CRITERION FOR DISP.    CORRECTION WHEN THERE IS ZERO FLUX         1.000E-03
     CRITERION FOR RESIDUAL FORCE     FOR A LINEAR INCREMENT           1.000E-08
     FIELD CONVERSION RATIO                                             1.00    
     CRITERION FOR ZERO FORCE     REL. TO TIME AVRG. MAX. FORCE        1.000E-05
     CRITERION FOR ZERO DISP.    RELATIVE TO CHARACTERISTIC LENGTH     1.000E-08

     VOLUMETRIC STRAIN COMPATIBILITY TOLERANCE FOR HYBRID SOLIDS       1.000E-05
     AXIAL STRAIN COMPATIBILITY TOLERANCE FOR HYBRID BEAMS             1.000E-05
     TRANS. SHEAR STRAIN COMPATIBILITY TOLERANCE FOR HYBRID BEAMS      1.000E-05
     SOFT CONTACT CONSTRAINT COMPATIBILITY TOLERANCE FOR P>P0          5.000E-03
     SOFT CONTACT CONSTRAINT COMPATIBILITY TOLERANCE FOR P=0.0         0.100    
     CONTACT FORCE ERROR TOLERANCE FOR CONVERT SDI=YES                 1.00    
     DISPLACEMENT COMPATIBILITY TOLERANCE FOR DCOUP ELEMENTS           1.000E-05
     ROTATION COMPATIBILITY TOLERANCE FOR DCOUP ELEMENTS               1.000E-05

 EQUILIBRIUM WILL BE CHECKED FOR SEVERE DISCONTINUITY ITERATIONS

 TIME INCREMENTATION CONTROL PARAMETERS:
     FIRST EQUILIBRIUM ITERATION FOR CONSECUTIVE DIVERGENCE CHECK              4
     EQUILIBRIUM ITERATION AT WHICH LOG. CONVERGENCE RATE CHECK BEGINS         8
     EQUILIBRIUM ITERATION AFTER WHICH ALTERNATE RESIDUAL IS USED              9
     MAXIMUM EQUILIBRIUM ITERATIONS ALLOWED                                   16
     EQUILIBRIUM ITERATION COUNT FOR CUT-BACK IN NEXT INCREMENT               10
     MAXIMUM EQUILIB. ITERS IN TWO INCREMENTS FOR TIME INCREMENT INCREASE      4
     MAXIMUM ITERATIONS FOR SEVERE DISCONTINUITIES                            50
     MAXIMUM ATTEMPTS ALLOWED IN AN INCREMENT                                  5
     MAXIMUM DISCON. ITERS IN TWO INCREMENTS FOR TIME INCREMENT INCREASE      50
     MAXIMUM CONTACT AUGMENTATIONS FOR *SURFACE BEHAVIOR,AUGMENTED LAGRANGE   50
     CUT-BACK FACTOR AFTER DIVERGENCE                                 0.2500    
     CUT-BACK FACTOR FOR TOO SLOW CONVERGENCE                         0.5000    
     CUT-BACK FACTOR AFTER TOO MANY EQUILIBRIUM ITERATIONS            0.7500    
     CUT-BACK FACTOR AFTER TOO MANY SEVERE DISCONTINUITY ITERATIONS   0.2500    
     CUT-BACK FACTOR AFTER PROBLEMS IN ELEMENT ASSEMBLY               0.2500    
     INCREASE FACTOR AFTER TWO INCREMENTS THAT CONVERGE QUICKLY        1.500    
     MAX. TIME INCREMENT INCREASE FACTOR ALLOWED                       1.500    
     MAX. TIME INCREMENT INCREASE FACTOR ALLOWED (DYNAMICS)            1.250    
     MAX. TIME INCREMENT INCREASE FACTOR ALLOWED (DIFFUSION)           2.000    
     MINIMUM TIME INCREMENT RATIO FOR EXTRAPOLATION TO OCCUR          0.1000    
     MAX. RATIO OF TIME INCREMENT TO STABILITY LIMIT                   1.000    
     FRACTION OF STABILITY LIMIT FOR NEW TIME INCREMENT               0.9500    
     TIME INCREMENT INCREASE FACTOR BEFORE A TIME POINT                1.000    
     GLOBAL STABILIZATION CONTROL IS NOT USED

          PRINT OF INCREMENT NUMBER, TIME, ETC., EVERY    1  INCREMENTS

     THE MAXIMUM NUMBER OF INCREMENTS IN THIS STEP IS                     100

          LARGE DISPLACEMENT THEORY WILL BE USED

     LINEAR EXTRAPOLATION WILL BE USED

     CHARACTERISTIC ELEMENT LENGTH     4.346E-04

     DETAILS REGARDING ACTUAL SOLUTION WAVEFRONT REQUESTED

     DETAILED OUTPUT OF DIAGNOSTICS TO DATABASE REQUESTED

     PRINT OF INCREMENT NUMBER, TIME, ETC., TO THE MESSAGE FILE EVERY     1  INCREMENTS

     ELEMENT OPERATIONS WILL BE CARRIED OUT IN PARALLEL USING  10 THREADS ON 1 DOMAIN

     PARALLEL CONTACT TRACKING ENABLED


     COLLECTING MODEL CONSTRAINT INFORMATION FOR OVERCONSTRAINT CHECKS

     COLLECTING STEP CONSTRAINT INFORMATION FOR OVERCONSTRAINT CHECKS


  INCREMENT     1 STARTS. ATTEMPT NUMBER  1, TIME INCREMENT   1.00    
 
     INITIAL ELEMENT LOAD BALANCE
            DOMAIN    1     THREAD    NUMBER OF ELEMENTS
                              1            12544
                              2            13056
                              3            12800
                              4            12544
                              5            13056
                              6            13011
                              7            12800
                              8            13056
                              9            13056
                             10            12544
 
	SYMMETRIC PURE THREAD-BASED DIRECT SPARSE SOLVER RUNNING ON
 	1 HOST x 1 MPI RANK PER HOST x 10 THREADS PER RANK
        NUMBER OF EQUATIONS:  494706
        NUMBER OF RHS:        1
        NUMBER OF FLOPS:      1.131e+11
        SOLVER ELAPSED TIME:  3.4s

               CONVERGENCE CHECKS FOR EQUILIBRIUM ITERATION     1


 AVERAGE FORCE                       357.       TIME AVG. FORCE        357.    
 LARGEST SCALED RESIDUAL FORCE      1.974E+04   AT NODE       3890   DOF  1
   INSTANCE: FINAL_PART-1                                                                    
  CORRESPONDING RESIDUAL FORCE      1.974E+04
 LARGEST INCREMENT OF DISP.        -8.436E-02   AT NODE      10604   DOF  3
   INSTANCE: FINAL_PART-1                                                                    
 LARGEST CORRECTION TO DISP.       -8.436E-02   AT NODE      10604   DOF  3
   INSTANCE: FINAL_PART-1                                                                    
          FORCE     EQUILIBRIUM NOT ACHIEVED WITHIN TOLERANCE.
 
	SYMMETRIC PURE THREAD-BASED DIRECT SPARSE SOLVER RUNNING ON
 	1 HOST x 1 MPI RANK PER HOST x 10 THREADS PER RANK
        NUMBER OF EQUATIONS:  494706
        NUMBER OF RHS:        1
        NUMBER OF FLOPS:      1.131e+11
        SOLVER ELAPSED TIME:  3.4s
 

 ***WARNING: THE SYSTEM MATRIX HAS 62283 NEGATIVE EIGENVALUES.

     NEGATIVE EIGENVALUES MEAN THAT THE SYSTEM MATRIX IS NOT 
     POSITIVE DEFINITE:
     FOR EXAMPLE, A BIFURCATION (BUCKLING) LOAD MAY HAVE BEEN EXCEEDED.
   ELEMENT FINAL_PART-1.2307 IS DISTORTING EXCESSIVELY.
   ELEMENT FINAL_PART-1.2309 IS DISTORTING EXCESSIVELY.
   ELEMENT FINAL_PART-1.2310 IS DISTORTING EXCESSIVELY.
   ELEMENT FINAL_PART-1.2313 IS DISTORTING EXCESSIVELY.
   ELEMENT FINAL_PART-1.2320 IS DISTORTING EXCESSIVELY.
   ELEMENT FINAL_PART-1.2321 IS DISTORTING EXCESSIVELY.
   ELEMENT FINAL_PART-1.2322 IS DISTORTING EXCESSIVELY.
   ELEMENT FINAL_PART-1.2323 IS DISTORTING EXCESSIVELY.
   ELEMENT FINAL_PART-1.2324 IS DISTORTING EXCESSIVELY.
   ELEMENT FINAL_PART-1.2326 IS DISTORTING EXCESSIVELY.
   ELEMENT FINAL_PART-1.2327 IS DISTORTING EXCESSIVELY.
   ELEMENT FINAL_PART-1.2328 IS DISTORTING EXCESSIVELY.
   ELEMENT FINAL_PART-1.2329 IS DISTORTING EXCESSIVELY.
   ELEMENT FINAL_PART-1.2330 IS DISTORTING EXCESSIVELY.
   ELEMENT FINAL_PART-1.2332 IS DISTORTING EXCESSIVELY.
   ELEMENT FINAL_PART-1.2338 IS DISTORTING EXCESSIVELY.
   ELEMENT FINAL_PART-1.2339 IS DISTORTING EXCESSIVELY.
   ELEMENT FINAL_PART-1.2341 IS DISTORTING EXCESSIVELY.
   ELEMENT FINAL_PART-1.2343 IS DISTORTING EXCESSIVELY.
   ELEMENT FINAL_PART-1.2344 IS DISTORTING EXCESSIVELY.
   ELEMENT FINAL_PART-1.2345 IS DISTORTING EXCESSIVELY.
   ELEMENT FINAL_PART-1.2351 IS DISTORTING EXCESSIVELY.
   ELEMENT FINAL_PART-1.2352 IS DISTORTING EXCESSIVELY.
   ELEMENT FINAL_PART-1.2353 IS DISTORTING EXCESSIVELY.
   ELEMENT FINAL_PART-1.2354 IS DISTORTING EXCESSIVELY.
   ELEMENT FINAL_PART-1.2359 IS DISTORTING EXCESSIVELY.
   ELEMENT FINAL_PART-1.2360 IS DISTORTING EXCESSIVELY.
   ELEMENT FINAL_PART-1.2361 IS DISTORTING EXCESSIVELY.
   ELEMENT FINAL_PART-1.2364 IS DISTORTING EXCESSIVELY.
   ELEMENT FINAL_PART-1.2365 IS DISTORTING EXCESSIVELY.
   ELEMENT FINAL_PART-1.2366 IS DISTORTING EXCESSIVELY.
   ELEMENT FINAL_PART-1.2367 IS DISTORTING EXCESSIVELY.
   ELEMENT FINAL_PART-1.2370 IS DISTORTING EXCESSIVELY.
   ELEMENT FINAL_PART-1.2376 IS DISTORTING EXCESSIVELY.
   ELEMENT FINAL_PART-1.2380 IS DISTORTING EXCESSIVELY.
   ELEMENT FINAL_PART-1.2384 IS DISTORTING EXCESSIVELY.
   ELEMENT FINAL_PART-1.2385 IS DISTORTING EXCESSIVELY.
   ELEMENT FINAL_PART-1.2386 IS DISTORTING EXCESSIVELY.
   ELEMENT FINAL_PART-1.2392 IS DISTORTING EXCESSIVELY.
   ELEMENT FINAL_PART-1.2393 IS DISTORTING EXCESSIVELY.
   ELEMENT FINAL_PART-1.2394 IS DISTORTING EXCESSIVELY.
   ELEMENT FINAL_PART-1.2400 IS DISTORTING EXCESSIVELY.
   ELEMENT FINAL_PART-1.2403 IS DISTORTING EXCESSIVELY.
   ELEMENT FINAL_PART-1.2404 IS DISTORTING EXCESSIVELY.
   ELEMENT FINAL_PART-1.2405 IS DISTORTING EXCESSIVELY.
   ELEMENT FINAL_PART-1.2407 IS DISTORTING EXCESSIVELY.
   ELEMENT FINAL_PART-1.2408 IS DISTORTING EXCESSIVELY.
   ELEMENT FINAL_PART-1.2411 IS DISTORTING EXCESSIVELY.
   ELEMENT FINAL_PART-1.2413 IS DISTORTING EXCESSIVELY.
   ELEMENT FINAL_PART-1.2417 IS DISTORTING EXCESSIVELY.
   ELEMENT FINAL_PART-1.2420 IS DISTORTING EXCESSIVELY.
   ELEMENT FINAL_PART-1.2421 IS DISTORTING EXCESSIVELY.
   ELEMENT FINAL_PART-1.2425 IS DISTORTING EXCESSIVELY.
   ELEMENT FINAL_PART-1.2428 IS DISTORTING EXCESSIVELY.
   ELEMENT FINAL_PART-1.2429 IS DISTORTING EXCESSIVELY.
   ELEMENT FINAL_PART-1.2432 IS DISTORTING EXCESSIVELY.
   ELEMENT FINAL_PART-1.2433 IS DISTORTING EXCESSIVELY.
   ELEMENT FINAL_PART-1.2435 IS DISTORTING EXCESSIVELY.
   ELEMENT FINAL_PART-1.2436 IS DISTORTING EXCESSIVELY.
   ELEMENT FINAL_PART-1.2440 IS DISTORTING EXCESSIVELY.
   ELEMENT FINAL_PART-1.2443 IS DISTORTING EXCESSIVELY.
   ELEMENT FINAL_PART-1.2445 IS DISTORTING EXCESSIVELY.
   ELEMENT FINAL_PART-1.2446 IS DISTORTING EXCESSIVELY.
   ELEMENT FINAL_PART-1.2447 IS DISTORTING EXCESSIVELY.
   ELEMENT FINAL_PART-1.2448 IS DISTORTING EXCESSIVELY.
   ELEMENT FINAL_PART-1.2450 IS DISTORTING EXCESSIVELY.
   ELEMENT FINAL_PART-1.2452 IS DISTORTING EXCESSIVELY.
   ELEMENT FINAL_PART-1.2456 IS DISTORTING EXCESSIVELY.
   ELEMENT FINAL_PART-1.2458 IS DISTORTING EXCESSIVELY.
   ELEMENT FINAL_PART-1.2459 IS DISTORTING EXCESSIVELY.
   ELEMENT FINAL_PART-1.2460 IS DISTORTING EXCESSIVELY.
   ELEMENT FINAL_PART-1.2461 IS DISTORTING EXCESSIVELY.
   ELEMENT FINAL_PART-1.2463 IS DISTORTING EXCESSIVELY.
   ELEMENT FINAL_PART-1.2464 IS DISTORTING EXCESSIVELY.
   ELEMENT FINAL_PART-1.2465 IS DISTORTING EXCESSIVELY.
   ELEMENT FINAL_PART-1.2466 IS DISTORTING EXCESSIVELY.
   ELEMENT FINAL_PART-1.2467 IS DISTORTING EXCESSIVELY.
   ELEMENT FINAL_PART-1.2469 IS DISTORTING EXCESSIVELY.
   ELEMENT FINAL_PART-1.2471 IS DISTORTING EXCESSIVELY.
   ELEMENT FINAL_PART-1.2476 IS DISTORTING EXCESSIVELY.
   ELEMENT FINAL_PART-1.2477 IS DISTORTING EXCESSIVELY.
   ELEMENT FINAL_PART-1.2478 IS DISTORTING EXCESSIVELY.
   ELEMENT FINAL_PART-1.2479 IS DISTORTING EXCESSIVELY.
   ELEMENT FINAL_PART-1.2480 IS DISTORTING EXCESSIVELY.
   ELEMENT FINAL_PART-1.2481 IS DISTORTING EXCESSIVELY.
   ELEMENT FINAL_PART-1.2485 IS DISTORTING EXCESSIVELY.
   ELEMENT FINAL_PART-1.2486 IS DISTORTING EXCESSIVELY.
   ELEMENT FINAL_PART-1.2489 IS DISTORTING EXCESSIVELY.
   ELEMENT FINAL_PART-1.2491 IS DISTORTING EXCESSIVELY.
   ELEMENT FINAL_PART-1.2495 IS DISTORTING EXCESSIVELY.
   ELEMENT FINAL_PART-1.2496 IS DISTORTING EXCESSIVELY.
   ELEMENT FINAL_PART-1.2497 IS DISTORTING EXCESSIVELY.
   ELEMENT FINAL_PART-1.2498 IS DISTORTING EXCESSIVELY.
   ELEMENT FINAL_PART-1.2499 IS DISTORTING EXCESSIVELY.
   ELEMENT FINAL_PART-1.2500 IS DISTORTING EXCESSIVELY.
   ELEMENT FINAL_PART-1.2503 IS DISTORTING EXCESSIVELY.
   ELEMENT FINAL_PART-1.2504 IS DISTORTING EXCESSIVELY.
   ELEMENT FINAL_PART-1.2505 IS DISTORTING EXCESSIVELY.
   ELEMENT FINAL_PART-1.2506 IS DISTORTING EXCESSIVELY.
   ELEMENT FINAL_PART-1.2507 IS DISTORTING EXCESSIVELY.
   ELEMENT FINAL_PART-1.2508 IS DISTORTING EXCESSIVELY.
   ELEMENT FINAL_PART-1.2514 IS DISTORTING EXCESSIVELY.
   ELEMENT FINAL_PART-1.2515 IS DISTORTING EXCESSIVELY.
   ELEMENT FINAL_PART-1.2518 IS DISTORTING EXCESSIVELY.
   ELEMENT FINAL_PART-1.2519 IS DISTORTING EXCESSIVELY.
   ELEMENT FINAL_PART-1.2521 IS DISTORTING EXCESSIVELY.
   ELEMENT FINAL_PART-1.2522 IS DISTORTING EXCESSIVELY.
   ELEMENT FINAL_PART-1.2523 IS DISTORTING EXCESSIVELY.
   ELEMENT FINAL_PART-1.2524 IS DISTORTING EXCESSIVELY.
   ELEMENT FINAL_PART-1.2526 IS DISTORTING EXCESSIVELY.
   ELEMENT FINAL_PART-1.2528 IS DISTORTING EXCESSIVELY.
   ELEMENT FINAL_PART-1.2530 IS DISTORTING EXCESSIVELY.
   ELEMENT FINAL_PART-1.2536 IS DISTORTING EXCESSIVELY.
   ELEMENT FINAL_PART-1.2537 IS DISTORTING EXCESSIVELY.
   ELEMENT FINAL_PART-1.2542 IS DISTORTING EXCESSIVELY.
   ELEMENT FINAL_PART-1.2546 IS DISTORTING EXCESSIVELY.
   ELEMENT FINAL_PART-1.2547 IS DISTORTING EXCESSIVELY.
   ELEMENT FINAL_PART-1.2549 IS DISTORTING EXCESSIVELY.
   ELEMENT FINAL_PART-1.2556 IS DISTORTING EXCESSIVELY.
   ELEMENT FINAL_PART-1.2557 IS DISTORTING EXCESSIVELY.
   ELEMENT FINAL_PART-1.2558 IS DISTORTING EXCESSIVELY.
   ELEMENT FINAL_PART-1.2560 IS DISTORTING EXCESSIVELY.
   ELEMENT FINAL_PART-1.45313 IS DISTORTING EXCESSIVELY.
   ELEMENT FINAL_PART-1.45315 IS DISTORTING EXCESSIVELY.
   ELEMENT FINAL_PART-1.45317 IS DISTORTING EXCESSIVELY.
   ELEMENT FINAL_PART-1.45318 IS DISTORTING EXCESSIVELY.
   ELEMENT FINAL_PART-1.45320 IS DISTORTING EXCESSIVELY.
   ELEMENT FINAL_PART-1.45324 IS DISTORTING EXCESSIVELY.
   ELEMENT FINAL_PART-1.45325 IS DISTORTING EXCESSIVELY.
   ELEMENT FINAL_PART-1.45326 IS DISTORTING EXCESSIVELY.
   ELEMENT FINAL_PART-1.45328 IS DISTORTING EXCESSIVELY.
   ELEMENT FINAL_PART-1.45329 IS DISTORTING EXCESSIVELY.
   ELEMENT FINAL_PART-1.45330 IS DISTORTING EXCESSIVELY.
   ELEMENT FINAL_PART-1.45331 IS DISTORTING EXCESSIVELY.
   ELEMENT FINAL_PART-1.45333 IS DISTORTING EXCESSIVELY.
   ELEMENT FINAL_PART-1.45335 IS DISTORTING EXCESSIVELY.
   ELEMENT FINAL_PART-1.45337 IS DISTORTING EXCESSIVELY.
   ELEMENT FINAL_PART-1.45338 IS DISTORTING EXCESSIVELY.
   ELEMENT FINAL_PART-1.45339 IS DISTORTING EXCESSIVELY.
   ELEMENT FINAL_PART-1.45340 IS DISTORTING EXCESSIVELY.
   ELEMENT FINAL_PART-1.45341 IS DISTORTING EXCESSIVELY.
   ELEMENT FINAL_PART-1.45344 IS DISTORTING EXCESSIVELY.
   ELEMENT FINAL_PART-1.45345 IS DISTORTING EXCESSIVELY.
   ELEMENT FINAL_PART-1.45347 IS DISTORTING EXCESSIVELY.
   ELEMENT FINAL_PART-1.45352 IS DISTORTING EXCESSIVELY.
   ELEMENT FINAL_PART-1.45354 IS DISTORTING EXCESSIVELY.
   ELEMENT FINAL_PART-1.45355 IS DISTORTING EXCESSIVELY.
   ELEMENT FINAL_PART-1.45356 IS DISTORTING EXCESSIVELY.
   ELEMENT FINAL_PART-1.45360 IS DISTORTING EXCESSIVELY.
   ELEMENT FINAL_PART-1.45361 IS DISTORTING EXCESSIVELY.
   ELEMENT FINAL_PART-1.45362 IS DISTORTING EXCESSIVELY.
   ELEMENT FINAL_PART-1.45363 IS DISTORTING EXCESSIVELY.
   ELEMENT FINAL_PART-1.45364 IS DISTORTING EXCESSIVELY.
   ELEMENT FINAL_PART-1.45365 IS DISTORTING EXCESSIVELY.
   ELEMENT FINAL_PART-1.45366 IS DISTORTING EXCESSIVELY.
   ELEMENT FINAL_PART-1.45367 IS DISTORTING EXCESSIVELY.
   ELEMENT FINAL_PART-1.45369 IS DISTORTING EXCESSIVELY.
   ELEMENT FINAL_PART-1.45373 IS DISTORTING EXCESSIVELY.
   ELEMENT FINAL_PART-1.45374 IS DISTORTING EXCESSIVELY.
   ELEMENT FINAL_PART-1.45376 IS DISTORTING EXCESSIVELY.
   ELEMENT FINAL_PART-1.45378 IS DISTORTING EXCESSIVELY.
   ELEMENT FINAL_PART-1.45379 IS DISTORTING EXCESSIVELY.
   ELEMENT FINAL_PART-1.45380 IS DISTORTING EXCESSIVELY.
   ELEMENT FINAL_PART-1.45381 IS DISTORTING EXCESSIVELY.
   ELEMENT FINAL_PART-1.45384 IS DISTORTING EXCESSIVELY.
   ELEMENT FINAL_PART-1.45386 IS DISTORTING EXCESSIVELY.
   ELEMENT FINAL_PART-1.45388 IS DISTORTING EXCESSIVELY.
   ELEMENT FINAL_PART-1.45389 IS DISTORTING EXCESSIVELY.
   ELEMENT FINAL_PART-1.45390 IS DISTORTING EXCESSIVELY.
   ELEMENT FINAL_PART-1.45391 IS DISTORTING EXCESSIVELY.
   ELEMENT FINAL_PART-1.45394 IS DISTORTING EXCESSIVELY.
   ELEMENT FINAL_PART-1.45400 IS DISTORTING EXCESSIVELY.
   ELEMENT FINAL_PART-1.45401 IS DISTORTING EXCESSIVELY.
   ELEMENT FINAL_PART-1.45402 IS DISTORTING EXCESSIVELY.
   ELEMENT FINAL_PART-1.45403 IS DISTORTING EXCESSIVELY.
   ELEMENT FINAL_PART-1.45404 IS DISTORTING EXCESSIVELY.
   ELEMENT FINAL_PART-1.45406 IS DISTORTING EXCESSIVELY.
   ELEMENT FINAL_PART-1.45411 IS DISTORTING EXCESSIVELY.
   ELEMENT FINAL_PART-1.45412 IS DISTORTING EXCESSIVELY.
   ELEMENT FINAL_PART-1.45416 IS DISTORTING EXCESSIVELY.
   ELEMENT FINAL_PART-1.45423 IS DISTORTING EXCESSIVELY.
   ELEMENT FINAL_PART-1.45424 IS DISTORTING EXCESSIVELY.
   ELEMENT FINAL_PART-1.45426 IS DISTORTING EXCESSIVELY.
   ELEMENT FINAL_PART-1.45428 IS DISTORTING EXCESSIVELY.
   ELEMENT FINAL_PART-1.45430 IS DISTORTING EXCESSIVELY.
   ELEMENT FINAL_PART-1.45432 IS DISTORTING EXCESSIVELY.
   ELEMENT FINAL_PART-1.45433 IS DISTORTING EXCESSIVELY.
   ELEMENT FINAL_PART-1.45436 IS DISTORTING EXCESSIVELY.
   ELEMENT FINAL_PART-1.45437 IS DISTORTING EXCESSIVELY.
   ELEMENT FINAL_PART-1.45438 IS DISTORTING EXCESSIVELY.
   ELEMENT FINAL_PART-1.45440 IS DISTORTING EXCESSIVELY.
   ELEMENT FINAL_PART-1.45441 IS DISTORTING EXCESSIVELY.
   ELEMENT FINAL_PART-1.45443 IS DISTORTING EXCESSIVELY.
   ELEMENT FINAL_PART-1.45445 IS DISTORTING EXCESSIVELY.
   ELEMENT FINAL_PART-1.45446 IS DISTORTING EXCESSIVELY.
   ELEMENT FINAL_PART-1.45447 IS DISTORTING EXCESSIVELY.
   ELEMENT FINAL_PART-1.45448 IS DISTORTING EXCESSIVELY.
   ELEMENT FINAL_PART-1.45450 IS DISTORTING EXCESSIVELY.
   ELEMENT FINAL_PART-1.45451 IS DISTORTING EXCESSIVELY.
   ELEMENT FINAL_PART-1.45452 IS DISTORTING EXCESSIVELY.
   ELEMENT FINAL_PART-1.45456 IS DISTORTING EXCESSIVELY.
   ELEMENT FINAL_PART-1.45460 IS DISTORTING EXCESSIVELY.
   ELEMENT FINAL_PART-1.45462 IS DISTORTING EXCESSIVELY.
   ELEMENT FINAL_PART-1.45464 IS DISTORTING EXCESSIVELY.
   ELEMENT FINAL_PART-1.45466 IS DISTORTING EXCESSIVELY.
   ELEMENT FINAL_PART-1.45469 IS DISTORTING EXCESSIVELY.
   ELEMENT FINAL_PART-1.45474 IS DISTORTING EXCESSIVELY.
   ELEMENT FINAL_PART-1.45477 IS DISTORTING EXCESSIVELY.
   ELEMENT FINAL_PART-1.45479 IS DISTORTING EXCESSIVELY.
   ELEMENT FINAL_PART-1.45482 IS DISTORTING EXCESSIVELY.
   ELEMENT FINAL_PART-1.45483 IS DISTORTING EXCESSIVELY.
   ELEMENT FINAL_PART-1.45485 IS DISTORTING EXCESSIVELY.
   ELEMENT FINAL_PART-1.45486 IS DISTORTING EXCESSIVELY.
   ELEMENT FINAL_PART-1.45487 IS DISTORTING EXCESSIVELY.
   ELEMENT FINAL_PART-1.45488 IS DISTORTING EXCESSIVELY.
   ELEMENT FINAL_PART-1.45492 IS DISTORTING EXCESSIVELY.
   ELEMENT FINAL_PART-1.45494 IS DISTORTING EXCESSIVELY.
   ELEMENT FINAL_PART-1.45495 IS DISTORTING EXCESSIVELY.
   ELEMENT FINAL_PART-1.45497 IS DISTORTING EXCESSIVELY.
   ELEMENT FINAL_PART-1.45498 IS DISTORTING EXCESSIVELY.
   ELEMENT FINAL_PART-1.45499 IS DISTORTING EXCESSIVELY.
   ELEMENT FINAL_PART-1.45500 IS DISTORTING EXCESSIVELY.
   ELEMENT FINAL_PART-1.45506 IS DISTORTING EXCESSIVELY.
   ELEMENT FINAL_PART-1.45516 IS DISTORTING EXCESSIVELY.
   ELEMENT FINAL_PART-1.45518 IS DISTORTING EXCESSIVELY.
   ELEMENT FINAL_PART-1.45520 IS DISTORTING EXCESSIVELY.
   ELEMENT FINAL_PART-1.45521 IS DISTORTING EXCESSIVELY.
   ELEMENT FINAL_PART-1.45522 IS DISTORTING EXCESSIVELY.
   ELEMENT FINAL_PART-1.45523 IS DISTORTING EXCESSIVELY.
   ELEMENT FINAL_PART-1.45524 IS DISTORTING EXCESSIVELY.
   ELEMENT FINAL_PART-1.45527 IS DISTORTING EXCESSIVELY.
   ELEMENT FINAL_PART-1.45531 IS DISTORTING EXCESSIVELY.
   ELEMENT FINAL_PART-1.45536 IS DISTORTING EXCESSIVELY.
   ELEMENT FINAL_PART-1.45537 IS DISTORTING EXCESSIVELY.
   ELEMENT FINAL_PART-1.45538 IS DISTORTING EXCESSIVELY.
   ELEMENT FINAL_PART-1.45539 IS DISTORTING EXCESSIVELY.
   ELEMENT FINAL_PART-1.45540 IS DISTORTING EXCESSIVELY.
   ELEMENT FINAL_PART-1.45542 IS DISTORTING EXCESSIVELY.
   ELEMENT FINAL_PART-1.45543 IS DISTORTING EXCESSIVELY.
   ELEMENT FINAL_PART-1.45552 IS DISTORTING EXCESSIVELY.
   ELEMENT FINAL_PART-1.45553 IS DISTORTING EXCESSIVELY.
   ELEMENT FINAL_PART-1.45556 IS DISTORTING EXCESSIVELY.
   ELEMENT FINAL_PART-1.45557 IS DISTORTING EXCESSIVELY.
   ELEMENT FINAL_PART-1.45558 IS DISTORTING EXCESSIVELY.
   ELEMENT FINAL_PART-1.45563 IS DISTORTING EXCESSIVELY.
   ELEMENT FINAL_PART-1.45565 IS DISTORTING EXCESSIVELY.
   ELEMENT FINAL_PART-1.45566 IS DISTORTING EXCESSIVELY.
   ELEMENT FINAL_PART-1.45567 IS DISTORTING EXCESSIVELY.
   ELEMENT FINAL_PART-1.98561 IS DISTORTING EXCESSIVELY.
   ELEMENT FINAL_PART-1.98563 IS DISTORTING EXCESSIVELY.
   ELEMENT FINAL_PART-1.98566 IS DISTORTING EXCESSIVELY.
   ELEMENT FINAL_PART-1.98568 IS DISTORTING EXCESSIVELY.
   ELEMENT FINAL_PART-1.98570 IS DISTORTING EXCESSIVELY.
   ELEMENT FINAL_PART-1.98571 IS DISTORTING EXCESSIVELY.
   ELEMENT FINAL_PART-1.98574 IS DISTORTING EXCESSIVELY.
   ELEMENT FINAL_PART-1.98576 IS DISTORTING EXCESSIVELY.
   ELEMENT FINAL_PART-1.98580 IS DISTORTING EXCESSIVELY.
   ELEMENT FINAL_PART-1.98582 IS DISTORTING EXCESSIVELY.
   ELEMENT FINAL_PART-1.98583 IS DISTORTING EXCESSIVELY.
   ELEMENT FINAL_PART-1.98584 IS DISTORTING EXCESSIVELY.
   ELEMENT FINAL_PART-1.98585 IS DISTORTING EXCESSIVELY.
   ELEMENT FINAL_PART-1.98591 IS DISTORTING EXCESSIVELY.
   ELEMENT FINAL_PART-1.98593 IS DISTORTING EXCESSIVELY.
   ELEMENT FINAL_PART-1.98594 IS DISTORTING EXCESSIVELY.
   ELEMENT FINAL_PART-1.98595 IS DISTORTING EXCESSIVELY.
   ELEMENT FINAL_PART-1.98597 IS DISTORTING EXCESSIVELY.
   ELEMENT FINAL_PART-1.98606 IS DISTORTING EXCESSIVELY.
   ELEMENT FINAL_PART-1.98608 IS DISTORTING EXCESSIVELY.
   ELEMENT FINAL_PART-1.98609 IS DISTORTING EXCESSIVELY.
   ELEMENT FINAL_PART-1.98610 IS DISTORTING EXCESSIVELY.
   ELEMENT FINAL_PART-1.98613 IS DISTORTING EXCESSIVELY.
   ELEMENT FINAL_PART-1.98615 IS DISTORTING EXCESSIVELY.
   ELEMENT FINAL_PART-1.98617 IS DISTORTING EXCESSIVELY.
   ELEMENT FINAL_PART-1.98620 IS DISTORTING EXCESSIVELY.
   ELEMENT FINAL_PART-1.98622 IS DISTORTING EXCESSIVELY.
   ELEMENT FINAL_PART-1.98624 IS DISTORTING EXCESSIVELY.
   ELEMENT FINAL_PART-1.98625 IS DISTORTING EXCESSIVELY.
   ELEMENT FINAL_PART-1.98628 IS DISTORTING EXCESSIVELY.
   ELEMENT FINAL_PART-1.98629 IS DISTORTING EXCESSIVELY.
   ELEMENT FINAL_PART-1.98630 IS DISTORTING EXCESSIVELY.
   ELEMENT FINAL_PART-1.98631 IS DISTORTING EXCESSIVELY.
   ELEMENT FINAL_PART-1.98632 IS DISTORTING EXCESSIVELY.
   ELEMENT FINAL_PART-1.98634 IS DISTORTING EXCESSIVELY.
   ELEMENT FINAL_PART-1.98635 IS DISTORTING EXCESSIVELY.
   ELEMENT FINAL_PART-1.98636 IS DISTORTING EXCESSIVELY.
   ELEMENT FINAL_PART-1.98637 IS DISTORTING EXCESSIVELY.
   ELEMENT FINAL_PART-1.98638 IS DISTORTING EXCESSIVELY.
   ELEMENT FINAL_PART-1.98646 IS DISTORTING EXCESSIVELY.
   ELEMENT FINAL_PART-1.98647 IS DISTORTING EXCESSIVELY.
   ELEMENT FINAL_PART-1.98648 IS DISTORTING EXCESSIVELY.
   ELEMENT FINAL_PART-1.98649 IS DISTORTING EXCESSIVELY.
   ELEMENT FINAL_PART-1.98652 IS DISTORTING EXCESSIVELY.
   ELEMENT FINAL_PART-1.98653 IS DISTORTING EXCESSIVELY.
   ELEMENT FINAL_PART-1.98654 IS DISTORTING EXCESSIVELY.
   ELEMENT FINAL_PART-1.98656 IS DISTORTING EXCESSIVELY.
   ELEMENT FINAL_PART-1.98657 IS DISTORTING EXCESSIVELY.
   ELEMENT FINAL_PART-1.98658 IS DISTORTING EXCESSIVELY.
   ELEMENT FINAL_PART-1.98659 IS DISTORTING EXCESSIVELY.
   ELEMENT FINAL_PART-1.98660 IS DISTORTING EXCESSIVELY.
   ELEMENT FINAL_PART-1.98664 IS DISTORTING EXCESSIVELY.
   ELEMENT FINAL_PART-1.98667 IS DISTORTING EXCESSIVELY.
   ELEMENT FINAL_PART-1.98672 IS DISTORTING EXCESSIVELY.
   ELEMENT FINAL_PART-1.98673 IS DISTORTING EXCESSIVELY.
   ELEMENT FINAL_PART-1.98675 IS DISTORTING EXCESSIVELY.
   ELEMENT FINAL_PART-1.98676 IS DISTORTING EXCESSIVELY.
   ELEMENT FINAL_PART-1.98677 IS DISTORTING EXCESSIVELY.
   ELEMENT FINAL_PART-1.98679 IS DISTORTING EXCESSIVELY.
   ELEMENT FINAL_PART-1.98681 IS DISTORTING EXCESSIVELY.
   ELEMENT FINAL_PART-1.98682 IS DISTORTING EXCESSIVELY.
   ELEMENT FINAL_PART-1.98687 IS DISTORTING EXCESSIVELY.
   ELEMENT FINAL_PART-1.98692 IS DISTORTING EXCESSIVELY.
   ELEMENT FINAL_PART-1.98693 IS DISTORTING EXCESSIVELY.
   ELEMENT FINAL_PART-1.98697 IS DISTORTING EXCESSIVELY.
   ELEMENT FINAL_PART-1.98698 IS DISTORTING EXCESSIVELY.
   ELEMENT FINAL_PART-1.98706 IS DISTORTING EXCESSIVELY.
   ELEMENT FINAL_PART-1.98708 IS DISTORTING EXCESSIVELY.
   ELEMENT FINAL_PART-1.98709 IS DISTORTING EXCESSIVELY.
   ELEMENT FINAL_PART-1.98711 IS DISTORTING EXCESSIVELY.
   ELEMENT FINAL_PART-1.98714 IS DISTORTING EXCESSIVELY.
   ELEMENT FINAL_PART-1.98715 IS DISTORTING EXCESSIVELY.
   ELEMENT FINAL_PART-1.98716 IS DISTORTING EXCESSIVELY.
   ELEMENT FINAL_PART-1.98721 IS DISTORTING EXCESSIVELY.
   ELEMENT FINAL_PART-1.98722 IS DISTORTING EXCESSIVELY.
   ELEMENT FINAL_PART-1.98725 IS DISTORTING EXCESSIVELY.
   ELEMENT FINAL_PART-1.98726 IS DISTORTING EXCESSIVELY.
   ELEMENT FINAL_PART-1.98727 IS DISTORTING EXCESSIVELY.
   ELEMENT FINAL_PART-1.98729 IS DISTORTING EXCESSIVELY.
   ELEMENT FINAL_PART-1.98731 IS DISTORTING EXCESSIVELY.
   ELEMENT FINAL_PART-1.98734 IS DISTORTING EXCESSIVELY.
   ELEMENT FINAL_PART-1.98736 IS DISTORTING EXCESSIVELY.
   ELEMENT FINAL_PART-1.98737 IS DISTORTING EXCESSIVELY.
   ELEMENT FINAL_PART-1.98738 IS DISTORTING EXCESSIVELY.
   ELEMENT FINAL_PART-1.98739 IS DISTORTING EXCESSIVELY.
   ELEMENT FINAL_PART-1.98740 IS DISTORTING EXCESSIVELY.
   ELEMENT FINAL_PART-1.98741 IS DISTORTING EXCESSIVELY.
   ELEMENT FINAL_PART-1.98742 IS DISTORTING EXCESSIVELY.
   ELEMENT FINAL_PART-1.98745 IS DISTORTING EXCESSIVELY.
   ELEMENT FINAL_PART-1.98746 IS DISTORTING EXCESSIVELY.
   ELEMENT FINAL_PART-1.98748 IS DISTORTING EXCESSIVELY.
   ELEMENT FINAL_PART-1.98756 IS DISTORTING EXCESSIVELY.
   ELEMENT FINAL_PART-1.98757 IS DISTORTING EXCESSIVELY.
   ELEMENT FINAL_PART-1.98758 IS DISTORTING EXCESSIVELY.
   ELEMENT FINAL_PART-1.98763 IS DISTORTING EXCESSIVELY.
   ELEMENT FINAL_PART-1.98769 IS DISTORTING EXCESSIVELY.
   ELEMENT FINAL_PART-1.98770 IS DISTORTING EXCESSIVELY.
   ELEMENT FINAL_PART-1.98771 IS DISTORTING EXCESSIVELY.
   ELEMENT FINAL_PART-1.98772 IS DISTORTING EXCESSIVELY.
   ELEMENT FINAL_PART-1.98773 IS DISTORTING EXCESSIVELY.
   ELEMENT FINAL_PART-1.98776 IS DISTORTING EXCESSIVELY.
   ELEMENT FINAL_PART-1.98778 IS DISTORTING EXCESSIVELY.
   ELEMENT FINAL_PART-1.98780 IS DISTORTING EXCESSIVELY.
   ELEMENT FINAL_PART-1.98781 IS DISTORTING EXCESSIVELY.
   ELEMENT FINAL_PART-1.98782 IS DISTORTING EXCESSIVELY.
   ELEMENT FINAL_PART-1.98783 IS DISTORTING EXCESSIVELY.
   ELEMENT FINAL_PART-1.98785 IS DISTORTING EXCESSIVELY.
   ELEMENT FINAL_PART-1.98786 IS DISTORTING EXCESSIVELY.
   ELEMENT FINAL_PART-1.98787 IS DISTORTING EXCESSIVELY.
   ELEMENT FINAL_PART-1.98788 IS DISTORTING EXCESSIVELY.
   ELEMENT FINAL_PART-1.98791 IS DISTORTING EXCESSIVELY.
   ELEMENT FINAL_PART-1.98792 IS DISTORTING EXCESSIVELY.
   ELEMENT FINAL_PART-1.98795 IS DISTORTING EXCESSIVELY.
   ELEMENT FINAL_PART-1.98798 IS DISTORTING EXCESSIVELY.
   ELEMENT FINAL_PART-1.98799 IS DISTORTING EXCESSIVELY.
   ELEMENT FINAL_PART-1.98801 IS DISTORTING EXCESSIVELY.
   ELEMENT FINAL_PART-1.98802 IS DISTORTING EXCESSIVELY.
   ELEMENT FINAL_PART-1.98805 IS DISTORTING EXCESSIVELY.
   ELEMENT FINAL_PART-1.98806 IS DISTORTING EXCESSIVELY.
   ELEMENT FINAL_PART-1.98808 IS DISTORTING EXCESSIVELY.
   ELEMENT FINAL_PART-1.98809 IS DISTORTING EXCESSIVELY.
   ELEMENT FINAL_PART-1.98811 IS DISTORTING EXCESSIVELY.
   ELEMENT FINAL_PART-1.98813 IS DISTORTING EXCESSIVELY.
   ELEMENT FINAL_PART-1.98815 IS DISTORTING EXCESSIVELY.
   ELEMENT FINAL_PART-1.127233 IS DISTORTING EXCESSIVELY.
   ELEMENT FINAL_PART-1.127234 IS DISTORTING EXCESSIVELY.
   ELEMENT FINAL_PART-1.127235 IS DISTORTING EXCESSIVELY.
   ELEMENT FINAL_PART-1.127236 IS DISTORTING EXCESSIVELY.
   ELEMENT FINAL_PART-1.127237 IS DISTORTING EXCESSIVELY.
   ELEMENT FINAL_PART-1.127239 IS DISTORTING EXCESSIVELY.
   ELEMENT FINAL_PART-1.127243 IS DISTORTING EXCESSIVELY.
   ELEMENT FINAL_PART-1.127247 IS DISTORTING EXCESSIVELY.
   ELEMENT FINAL_PART-1.127248 IS DISTORTING EXCESSIVELY.
   ELEMENT FINAL_PART-1.127249 IS DISTORTING EXCESSIVELY.
   ELEMENT FINAL_PART-1.127251 IS DISTORTING EXCESSIVELY.
   ELEMENT FINAL_PART-1.127253 IS DISTORTING EXCESSIVELY.
   ELEMENT FINAL_PART-1.127254 IS DISTORTING EXCESSIVELY.
   ELEMENT FINAL_PART-1.127257 IS DISTORTING EXCESSIVELY.
   ELEMENT FINAL_PART-1.127258 IS DISTORTING EXCESSIVELY.
   ELEMENT FINAL_PART-1.127260 IS DISTORTING EXCESSIVELY.
   ELEMENT FINAL_PART-1.127261 IS DISTORTING EXCESSIVELY.
   ELEMENT FINAL_PART-1.127262 IS DISTORTING EXCESSIVELY.
   ELEMENT FINAL_PART-1.127266 IS DISTORTING EXCESSIVELY.
   ELEMENT FINAL_PART-1.127268 IS DISTORTING EXCESSIVELY.
   ELEMENT FINAL_PART-1.127270 IS DISTORTING EXCESSIVELY.
   ELEMENT FINAL_PART-1.127272 IS DISTORTING EXCESSIVELY.
   ELEMENT FINAL_PART-1.127273 IS DISTORTING EXCESSIVELY.
   ELEMENT FINAL_PART-1.127276 IS DISTORTING EXCESSIVELY.
   ELEMENT FINAL_PART-1.127277 IS DISTORTING EXCESSIVELY.
   ELEMENT FINAL_PART-1.127281 IS DISTORTING EXCESSIVELY.
   ELEMENT FINAL_PART-1.127283 IS DISTORTING EXCESSIVELY.
   ELEMENT FINAL_PART-1.127284 IS DISTORTING EXCESSIVELY.
   ELEMENT FINAL_PART-1.127285 IS DISTORTING EXCESSIVELY.
   ELEMENT FINAL_PART-1.127287 IS DISTORTING EXCESSIVELY.
   ELEMENT FINAL_PART-1.127289 IS DISTORTING EXCESSIVELY.
   ELEMENT FINAL_PART-1.127292 IS DISTORTING EXCESSIVELY.
   ELEMENT FINAL_PART-1.127296 IS DISTORTING EXCESSIVELY.
   ELEMENT FINAL_PART-1.127298 IS DISTORTING EXCESSIVELY.
   ELEMENT FINAL_PART-1.127302 IS DISTORTING EXCESSIVELY.
   ELEMENT FINAL_PART-1.127304 IS DISTORTING EXCESSIVELY.
   ELEMENT FINAL_PART-1.127305 IS DISTORTING EXCESSIVELY.
   ELEMENT FINAL_PART-1.127310 IS DISTORTING EXCESSIVELY.
   ELEMENT FINAL_PART-1.127312 IS DISTORTING EXCESSIVELY.
   ELEMENT FINAL_PART-1.127313 IS DISTORTING EXCESSIVELY.
   ELEMENT FINAL_PART-1.127315 IS DISTORTING EXCESSIVELY.
   ELEMENT FINAL_PART-1.127318 IS DISTORTING EXCESSIVELY.
   ELEMENT FINAL_PART-1.127319 IS DISTORTING EXCESSIVELY.
   ELEMENT FINAL_PART-1.127320 IS DISTORTING EXCESSIVELY.
   ELEMENT FINAL_PART-1.127321 IS DISTORTING EXCESSIVELY.
   ELEMENT FINAL_PART-1.127323 IS DISTORTING EXCESSIVELY.
   ELEMENT FINAL_PART-1.127324 IS DISTORTING EXCESSIVELY.
   ELEMENT FINAL_PART-1.127326 IS DISTORTING EXCESSIVELY.
   ELEMENT FINAL_PART-1.127329 IS DISTORTING EXCESSIVELY.
   ELEMENT FINAL_PART-1.127331 IS DISTORTING EXCESSIVELY.
   ELEMENT FINAL_PART-1.127332 IS DISTORTING EXCESSIVELY.
   ELEMENT FINAL_PART-1.127335 IS DISTORTING EXCESSIVELY.
   ELEMENT FINAL_PART-1.127338 IS DISTORTING EXCESSIVELY.
   ELEMENT FINAL_PART-1.127341 IS DISTORTING EXCESSIVELY.
   ELEMENT FINAL_PART-1.127342 IS DISTORTING EXCESSIVELY.
   ELEMENT FINAL_PART-1.127343 IS DISTORTING EXCESSIVELY.
   ELEMENT FINAL_PART-1.127344 IS DISTORTING EXCESSIVELY.
   ELEMENT FINAL_PART-1.127345 IS DISTORTING EXCESSIVELY.
   ELEMENT FINAL_PART-1.127346 IS DISTORTING EXCESSIVELY.
   ELEMENT FINAL_PART-1.127348 IS DISTORTING EXCESSIVELY.
   ELEMENT FINAL_PART-1.127349 IS DISTORTING EXCESSIVELY.
   ELEMENT FINAL_PART-1.127350 IS DISTORTING EXCESSIVELY.
   ELEMENT FINAL_PART-1.127351 IS DISTORTING EXCESSIVELY.
   ELEMENT FINAL_PART-1.127353 IS DISTORTING EXCESSIVELY.
   ELEMENT FINAL_PART-1.127357 IS DISTORTING EXCESSIVELY.
   ELEMENT FINAL_PART-1.127362 IS DISTORTING EXCESSIVELY.
   ELEMENT FINAL_PART-1.127364 IS DISTORTING EXCESSIVELY.
   ELEMENT FINAL_PART-1.127365 IS DISTORTING EXCESSIVELY.
   ELEMENT FINAL_PART-1.127366 IS DISTORTING EXCESSIVELY.
   ELEMENT FINAL_PART-1.127367 IS DISTORTING EXCESSIVELY.
   ELEMENT FINAL_PART-1.127368 IS DISTORTING EXCESSIVELY.
   ELEMENT FINAL_PART-1.127371 IS DISTORTING EXCESSIVELY.
   ELEMENT FINAL_PART-1.127372 IS DISTORTING EXCESSIVELY.
   ELEMENT FINAL_PART-1.127373 IS DISTORTING EXCESSIVELY.
   ELEMENT FINAL_PART-1.127376 IS DISTORTING EXCESSIVELY.
   ELEMENT FINAL_PART-1.127378 IS DISTORTING EXCESSIVELY.
   ELEMENT FINAL_PART-1.127379 IS DISTORTING EXCESSIVELY.
   ELEMENT FINAL_PART-1.127381 IS DISTORTING EXCESSIVELY.
   ELEMENT FINAL_PART-1.127385 IS DISTORTING EXCESSIVELY.
   ELEMENT FINAL_PART-1.127386 IS DISTORTING EXCESSIVELY.
   ELEMENT FINAL_PART-1.127387 IS DISTORTING EXCESSIVELY.
   ELEMENT FINAL_PART-1.127388 IS DISTORTING EXCESSIVELY.
   ELEMENT FINAL_PART-1.127389 IS DISTORTING EXCESSIVELY.
   ELEMENT FINAL_PART-1.127391 IS DISTORTING EXCESSIVELY.
   ELEMENT FINAL_PART-1.127392 IS DISTORTING EXCESSIVELY.
   ELEMENT FINAL_PART-1.127393 IS DISTORTING EXCESSIVELY.
   ELEMENT FINAL_PART-1.127395 IS DISTORTING EXCESSIVELY.
   ELEMENT FINAL_PART-1.127398 IS DISTORTING EXCESSIVELY.
   ELEMENT FINAL_PART-1.127400 IS DISTORTING EXCESSIVELY.
   ELEMENT FINAL_PART-1.127402 IS DISTORTING EXCESSIVELY.
   ELEMENT FINAL_PART-1.127404 IS DISTORTING EXCESSIVELY.
   ELEMENT FINAL_PART-1.127406 IS DISTORTING EXCESSIVELY.
   ELEMENT FINAL_PART-1.127407 IS DISTORTING EXCESSIVELY.
   ELEMENT FINAL_PART-1.127408 IS DISTORTING EXCESSIVELY.
   ELEMENT FINAL_PART-1.127413 IS DISTORTING EXCESSIVELY.
   ELEMENT FINAL_PART-1.127414 IS DISTORTING EXCESSIVELY.
   ELEMENT FINAL_PART-1.127416 IS DISTORTING EXCESSIVELY.
   ELEMENT FINAL_PART-1.127420 IS DISTORTING EXCESSIVELY.
   ELEMENT FINAL_PART-1.127428 IS DISTORTING EXCESSIVELY.
   ELEMENT FINAL_PART-1.127429 IS DISTORTING EXCESSIVELY.
   ELEMENT FINAL_PART-1.127430 IS DISTORTING EXCESSIVELY.
   ELEMENT FINAL_PART-1.127432 IS DISTORTING EXCESSIVELY.
   ELEMENT FINAL_PART-1.127434 IS DISTORTING EXCESSIVELY.
   ELEMENT FINAL_PART-1.127436 IS DISTORTING EXCESSIVELY.
   ELEMENT FINAL_PART-1.127439 IS DISTORTING EXCESSIVELY.
   ELEMENT FINAL_PART-1.127440 IS DISTORTING EXCESSIVELY.
   ELEMENT FINAL_PART-1.127443 IS DISTORTING EXCESSIVELY.
   ELEMENT FINAL_PART-1.127447 IS DISTORTING EXCESSIVELY.
   ELEMENT FINAL_PART-1.127448 IS DISTORTING EXCESSIVELY.
   ELEMENT FINAL_PART-1.127449 IS DISTORTING EXCESSIVELY.
   ELEMENT FINAL_PART-1.127452 IS DISTORTING EXCESSIVELY.
   ELEMENT FINAL_PART-1.127453 IS DISTORTING EXCESSIVELY.
   ELEMENT FINAL_PART-1.127461 IS DISTORTING EXCESSIVELY.
   ELEMENT FINAL_PART-1.127463 IS DISTORTING EXCESSIVELY.
   ELEMENT FINAL_PART-1.127467 IS DISTORTING EXCESSIVELY.
   ELEMENT FINAL_PART-1.127471 IS DISTORTING EXCESSIVELY.
   ELEMENT FINAL_PART-1.127475 IS DISTORTING EXCESSIVELY.
   ELEMENT FINAL_PART-1.127476 IS DISTORTING EXCESSIVELY.
   ELEMENT FINAL_PART-1.127478 IS DISTORTING EXCESSIVELY.
   ELEMENT FINAL_PART-1.127479 IS DISTORTING EXCESSIVELY.
   ELEMENT FINAL_PART-1.127480 IS DISTORTING EXCESSIVELY.
   ELEMENT FINAL_PART-1.127483 IS DISTORTING EXCESSIVELY.
   ELEMENT FINAL_PART-1.127484 IS DISTORTING EXCESSIVELY.
   ELEMENT FINAL_PART-1.127485 IS DISTORTING EXCESSIVELY.
   ELEMENT FINAL_PART-1.127487 IS DISTORTING EXCESSIVELY.
   ELEMENT FINAL_PART-1.257 IS DISTORTING EXCESSIVELY.
   ELEMENT FINAL_PART-1.259 IS DISTORTING EXCESSIVELY.
   ELEMENT FINAL_PART-1.260 IS DISTORTING EXCESSIVELY.
   ELEMENT FINAL_PART-1.261 IS DISTORTING EXCESSIVELY.
   ELEMENT FINAL_PART-1.265 IS DISTORTING EXCESSIVELY.
   ELEMENT FINAL_PART-1.267 IS DISTORTING EXCESSIVELY.
   ELEMENT FINAL_PART-1.268 IS DISTORTING EXCESSIVELY.
   ELEMENT FINAL_PART-1.270 IS DISTORTING EXCESSIVELY.
   ELEMENT FINAL_PART-1.271 IS DISTORTING EXCESSIVELY.
   ELEMENT FINAL_PART-1.273 IS DISTORTING EXCESSIVELY.
   ELEMENT FINAL_PART-1.275 IS DISTORTING EXCESSIVELY.
   ELEMENT FINAL_PART-1.277 IS DISTORTING EXCESSIVELY.
   ELEMENT FINAL_PART-1.278 IS DISTORTING EXCESSIVELY.
   ELEMENT FINAL_PART-1.280 IS DISTORTING EXCESSIVELY.
   ELEMENT FINAL_PART-1.282 IS DISTORTING EXCESSIVELY.
   ELEMENT FINAL_PART-1.287 IS DISTORTING EXCESSIVELY.
   ELEMENT FINAL_PART-1.289 IS DISTORTING EXCESSIVELY.
   ELEMENT FINAL_PART-1.290 IS DISTORTING EXCESSIVELY.
   ELEMENT FINAL_PART-1.291 IS DISTORTING EXCESSIVELY.
   ELEMENT FINAL_PART-1.292 IS DISTORTING EXCESSIVELY.
   ELEMENT FINAL_PART-1.294 IS DISTORTING EXCESSIVELY.
   ELEMENT FINAL_PART-1.295 IS DISTORTING EXCESSIVELY.
   ELEMENT FINAL_PART-1.296 IS DISTORTING EXCESSIVELY.
   ELEMENT FINAL_PART-1.298 IS DISTORTING EXCESSIVELY.
   ELEMENT FINAL_PART-1.300 IS DISTORTING EXCESSIVELY.
   ELEMENT FINAL_PART-1.303 IS DISTORTING EXCESSIVELY.
   ELEMENT FINAL_PART-1.304 IS DISTORTING EXCESSIVELY.
   ELEMENT FINAL_PART-1.305 IS DISTORTING EXCESSIVELY.
   ELEMENT FINAL_PART-1.306 IS DISTORTING EXCESSIVELY.
   ELEMENT FINAL_PART-1.307 IS DISTORTING EXCESSIVELY.
   ELEMENT FINAL_PART-1.310 IS DISTORTING EXCESSIVELY.
   ELEMENT FINAL_PART-1.312 IS DISTORTING EXCESSIVELY.
   ELEMENT FINAL_PART-1.314 IS DISTORTING EXCESSIVELY.
   ELEMENT FINAL_PART-1.315 IS DISTORTING EXCESSIVELY.
   ELEMENT FINAL_PART-1.316 IS DISTORTING EXCESSIVELY.
   ELEMENT FINAL_PART-1.317 IS DISTORTING EXCESSIVELY.
   ELEMENT FINAL_PART-1.318 IS DISTORTING EXCESSIVELY.
   ELEMENT FINAL_PART-1.321 IS DISTORTING EXCESSIVELY.
   ELEMENT FINAL_PART-1.326 IS DISTORTING EXCESSIVELY.
   ELEMENT FINAL_PART-1.327 IS DISTORTING EXCESSIVELY.
   ELEMENT FINAL_PART-1.331 IS DISTORTING EXCESSIVELY.
   ELEMENT FINAL_PART-1.332 IS DISTORTING EXCESSIVELY.
   ELEMENT FINAL_PART-1.336 IS DISTORTING EXCESSIVELY.
   ELEMENT FINAL_PART-1.340 IS DISTORTING EXCESSIVELY.
   ELEMENT FINAL_PART-1.342 IS DISTORTING EXCESSIVELY.
   ELEMENT FINAL_PART-1.343 IS DISTORTING EXCESSIVELY.
   ELEMENT FINAL_PART-1.344 IS DISTORTING EXCESSIVELY.
   ELEMENT FINAL_PART-1.350 IS DISTORTING EXCESSIVELY.
   ELEMENT FINAL_PART-1.352 IS DISTORTING EXCESSIVELY.
   ELEMENT FINAL_PART-1.353 IS DISTORTING EXCESSIVELY.
   ELEMENT FINAL_PART-1.354 IS DISTORTING EXCESSIVELY.
   ELEMENT FINAL_PART-1.357 IS DISTORTING EXCESSIVELY.
   ELEMENT FINAL_PART-1.362 IS DISTORTING EXCESSIVELY.
   ELEMENT FINAL_PART-1.363 IS DISTORTING EXCESSIVELY.
   ELEMENT FINAL_PART-1.364 IS DISTORTING EXCESSIVELY.
   ELEMENT FINAL_PART-1.365 IS DISTORTING EXCESSIVELY.
   ELEMENT FINAL_PART-1.367 IS DISTORTING EXCESSIVELY.
   ELEMENT FINAL_PART-1.369 IS DISTORTING EXCESSIVELY.
   ELEMENT FINAL_PART-1.370 IS DISTORTING EXCESSIVELY.
   ELEMENT FINAL_PART-1.372 IS DISTORTING EXCESSIVELY.
   ELEMENT FINAL_PART-1.374 IS DISTORTING EXCESSIVELY.
   ELEMENT FINAL_PART-1.375 IS DISTORTING EXCESSIVELY.
   ELEMENT FINAL_PART-1.378 IS DISTORTING EXCESSIVELY.
   ELEMENT FINAL_PART-1.380 IS DISTORTING EXCESSIVELY.
   ELEMENT FINAL_PART-1.383 IS DISTORTING EXCESSIVELY.
   ELEMENT FINAL_PART-1.388 IS DISTORTING EXCESSIVELY.
   ELEMENT FINAL_PART-1.389 IS DISTORTING EXCESSIVELY.
   ELEMENT FINAL_PART-1.390 IS DISTORTING EXCESSIVELY.
   ELEMENT FINAL_PART-1.391 IS DISTORTING EXCESSIVELY.
   ELEMENT FINAL_PART-1.392 IS DISTORTING EXCESSIVELY.
   ELEMENT FINAL_PART-1.393 IS DISTORTING EXCESSIVELY.
   ELEMENT FINAL_PART-1.395 IS DISTORTING EXCESSIVELY.
   ELEMENT FINAL_PART-1.396 IS DISTORTING EXCESSIVELY.
   ELEMENT FINAL_PART-1.397 IS DISTORTING EXCESSIVELY.
   ELEMENT FINAL_PART-1.398 IS DISTORTING EXCESSIVELY.
   ELEMENT FINAL_PART-1.399 IS DISTORTING EXCESSIVELY.
   ELEMENT FINAL_PART-1.400 IS DISTORTING EXCESSIVELY.
   ELEMENT FINAL_PART-1.403 IS DISTORTING EXCESSIVELY.
   ELEMENT FINAL_PART-1.404 IS DISTORTING EXCESSIVELY.
   ELEMENT FINAL_PART-1.407 IS DISTORTING EXCESSIVELY.
   ELEMENT FINAL_PART-1.408 IS DISTORTING EXCESSIVELY.
   ELEMENT FINAL_PART-1.410 IS DISTORTING EXCESSIVELY.
   ELEMENT FINAL_PART-1.411 IS DISTORTING EXCESSIVELY.
   ELEMENT FINAL_PART-1.415 IS DISTORTING EXCESSIVELY.
   ELEMENT FINAL_PART-1.416 IS DISTORTING EXCESSIVELY.
   ELEMENT FINAL_PART-1.417 IS DISTORTING EXCESSIVELY.
   ELEMENT FINAL_PART-1.420 IS DISTORTING EXCESSIVELY.
   ELEMENT FINAL_PART-1.421 IS DISTORTING EXCESSIVELY.
   ELEMENT FINAL_PART-1.423 IS DISTORTING EXCESSIVELY.
   ELEMENT FINAL_PART-1.425 IS DISTORTING EXCESSIVELY.
   ELEMENT FINAL_PART-1.426 IS DISTORTING EXCESSIVELY.
   ELEMENT FINAL_PART-1.427 IS DISTORTING EXCESSIVELY.
   ELEMENT FINAL_PART-1.429 IS DISTORTING EXCESSIVELY.
   ELEMENT FINAL_PART-1.431 IS DISTORTING EXCESSIVELY.
   ELEMENT FINAL_PART-1.432 IS DISTORTING EXCESSIVELY.
   ELEMENT FINAL_PART-1.434 IS DISTORTING EXCESSIVELY.
   ELEMENT FINAL_PART-1.437 IS DISTORTING EXCESSIVELY.
   ELEMENT FINAL_PART-1.439 IS DISTORTING EXCESSIVELY.
   ELEMENT FINAL_PART-1.440 IS DISTORTING EXCESSIVELY.
   ELEMENT FINAL_PART-1.441 IS DISTORTING EXCESSIVELY.
   ELEMENT FINAL_PART-1.442 IS DISTORTING EXCESSIVELY.
   ELEMENT FINAL_PART-1.443 IS DISTORTING EXCESSIVELY.
   ELEMENT FINAL_PART-1.444 IS DISTORTING EXCESSIVELY.
   ELEMENT FINAL_PART-1.447 IS DISTORTING EXCESSIVELY.
   ELEMENT FINAL_PART-1.448 IS DISTORTING EXCESSIVELY.
   ELEMENT FINAL_PART-1.449 IS DISTORTING EXCESSIVELY.
   ELEMENT FINAL_PART-1.452 IS DISTORTING EXCESSIVELY.
   ELEMENT FINAL_PART-1.455 IS DISTORTING EXCESSIVELY.
   ELEMENT FINAL_PART-1.459 IS DISTORTING EXCESSIVELY.
   ELEMENT FINAL_PART-1.461 IS DISTORTING EXCESSIVELY.
   ELEMENT FINAL_PART-1.462 IS DISTORTING EXCESSIVELY.
   ELEMENT FINAL_PART-1.464 IS DISTORTING EXCESSIVELY.
   ELEMENT FINAL_PART-1.465 IS DISTORTING EXCESSIVELY.
   ELEMENT FINAL_PART-1.466 IS DISTORTING EXCESSIVELY.
   ELEMENT FINAL_PART-1.467 IS DISTORTING EXCESSIVELY.
   ELEMENT FINAL_PART-1.469 IS DISTORTING EXCESSIVELY.
   ELEMENT FINAL_PART-1.470 IS DISTORTING EXCESSIVELY.
   ELEMENT FINAL_PART-1.474 IS DISTORTING EXCESSIVELY.
   ELEMENT FINAL_PART-1.476 IS DISTORTING EXCESSIVELY.
   ELEMENT FINAL_PART-1.477 IS DISTORTING EXCESSIVELY.
   ELEMENT FINAL_PART-1.478 IS DISTORTING EXCESSIVELY.
   ELEMENT FINAL_PART-1.480 IS DISTORTING EXCESSIVELY.
   ELEMENT FINAL_PART-1.481 IS DISTORTING EXCESSIVELY.
   ELEMENT FINAL_PART-1.488 IS DISTORTING EXCESSIVELY.
   ELEMENT FINAL_PART-1.489 IS DISTORTING EXCESSIVELY.
   ELEMENT FINAL_PART-1.492 IS DISTORTING EXCESSIVELY.
   ELEMENT FINAL_PART-1.493 IS DISTORTING EXCESSIVELY.
   ELEMENT FINAL_PART-1.494 IS DISTORTING EXCESSIVELY.
   ELEMENT FINAL_PART-1.495 IS DISTORTING EXCESSIVELY.
   ELEMENT FINAL_PART-1.498 IS DISTORTING EXCESSIVELY.
   ELEMENT FINAL_PART-1.500 IS DISTORTING EXCESSIVELY.
   ELEMENT FINAL_PART-1.504 IS DISTORTING EXCESSIVELY.
   ELEMENT FINAL_PART-1.508 IS DISTORTING EXCESSIVELY.
   ELEMENT FINAL_PART-1.509 IS DISTORTING EXCESSIVELY.
   ELEMENT FINAL_PART-1.510 IS DISTORTING EXCESSIVELY.
   ELEMENT FINAL_PART-1.511 IS DISTORTING EXCESSIVELY.
   ELEMENT FINAL_PART-1.512 IS DISTORTING EXCESSIVELY.
   ELEMENT FINAL_PART-1.4098 IS DISTORTING EXCESSIVELY.
   ELEMENT FINAL_PART-1.4100 IS DISTORTING EXCESSIVELY.
   ELEMENT FINAL_PART-1.4101 IS DISTORTING EXCESSIVELY.
   ELEMENT FINAL_PART-1.4103 IS DISTORTING EXCESSIVELY.
   ELEMENT FINAL_PART-1.4104 IS DISTORTING EXCESSIVELY.
   ELEMENT FINAL_PART-1.4105 IS DISTORTING EXCESSIVELY.
   ELEMENT FINAL_PART-1.4106 IS DISTORTING EXCESSIVELY.
   ELEMENT FINAL_PART-1.4107 IS DISTORTING EXCESSIVELY.
   ELEMENT FINAL_PART-1.4108 IS DISTORTING EXCESSIVELY.
   ELEMENT FINAL_PART-1.4109 IS DISTORTING EXCESSIVELY.
   ELEMENT FINAL_PART-1.4110 IS DISTORTING EXCESSIVELY.
   ELEMENT FINAL_PART-1.4113 IS DISTORTING EXCESSIVELY.
   ELEMENT FINAL_PART-1.4116 IS DISTORTING EXCESSIVELY.
   ELEMENT FINAL_PART-1.4118 IS DISTORTING EXCESSIVELY.
   ELEMENT FINAL_PART-1.4122 IS DISTORTING EXCESSIVELY.
   ELEMENT FINAL_PART-1.4123 IS DISTORTING EXCESSIVELY.
   ELEMENT FINAL_PART-1.4125 IS DISTORTING EXCESSIVELY.
   ELEMENT FINAL_PART-1.4127 IS DISTORTING EXCESSIVELY.
   ELEMENT FINAL_PART-1.4128 IS DISTORTING EXCESSIVELY.
   ELEMENT FINAL_PART-1.4130 IS DISTORTING EXCESSIVELY.
   ELEMENT FINAL_PART-1.4132 IS DISTORTING EXCESSIVELY.
   ELEMENT FINAL_PART-1.4133 IS DISTORTING EXCESSIVELY.
   ELEMENT FINAL_PART-1.4134 IS DISTORTING EXCESSIVELY.
   ELEMENT FINAL_PART-1.4136 IS DISTORTING EXCESSIVELY.
   ELEMENT FINAL_PART-1.4138 IS DISTORTING EXCESSIVELY.
   ELEMENT FINAL_PART-1.4139 IS DISTORTING EXCESSIVELY.
   ELEMENT FINAL_PART-1.4140 IS DISTORTING EXCESSIVELY.
   ELEMENT FINAL_PART-1.4141 IS DISTORTING EXCESSIVELY.
   ELEMENT FINAL_PART-1.4144 IS DISTORTING EXCESSIVELY.
   ELEMENT FINAL_PART-1.4145 IS DISTORTING EXCESSIVELY.
   ELEMENT FINAL_PART-1.4146 IS DISTORTING EXCESSIVELY.
   ELEMENT FINAL_PART-1.4149 IS DISTORTING EXCESSIVELY.
   ELEMENT FINAL_PART-1.4150 IS DISTORTING EXCESSIVELY.
   ELEMENT FINAL_PART-1.4153 IS DISTORTING EXCESSIVELY.
   ELEMENT FINAL_PART-1.4154 IS DISTORTING EXCESSIVELY.
   ELEMENT FINAL_PART-1.4155 IS DISTORTING EXCESSIVELY.
   ELEMENT FINAL_PART-1.4156 IS DISTORTING EXCESSIVELY.
   ELEMENT FINAL_PART-1.4157 IS DISTORTING EXCESSIVELY.
   ELEMENT FINAL_PART-1.4158 IS DISTORTING EXCESSIVELY.
   ELEMENT FINAL_PART-1.4159 IS DISTORTING EXCESSIVELY.
   ELEMENT FINAL_PART-1.4161 IS DISTORTING EXCESSIVELY.
   ELEMENT FINAL_PART-1.4166 IS DISTORTING EXCESSIVELY.
   ELEMENT FINAL_PART-1.4167 IS DISTORTING EXCESSIVELY.
   ELEMENT FINAL_PART-1.4170 IS DISTORTING EXCESSIVELY.
   ELEMENT FINAL_PART-1.4172 IS DISTORTING EXCESSIVELY.
   ELEMENT FINAL_PART-1.4173 IS DISTORTING EXCESSIVELY.
   ELEMENT FINAL_PART-1.4175 IS DISTORTING EXCESSIVELY.
   ELEMENT FINAL_PART-1.4177 IS DISTORTING EXCESSIVELY.
   ELEMENT FINAL_PART-1.4178 IS DISTORTING EXCESSIVELY.
   ELEMENT FINAL_PART-1.4184 IS DISTORTING EXCESSIVELY.
   ELEMENT FINAL_PART-1.4186 IS DISTORTING EXCESSIVELY.
   ELEMENT FINAL_PART-1.4190 IS DISTORTING EXCESSIVELY.
   ELEMENT FINAL_PART-1.4191 IS DISTORTING EXCESSIVELY.
   ELEMENT FINAL_PART-1.4195 IS DISTORTING EXCESSIVELY.
   ELEMENT FINAL_PART-1.4197 IS DISTORTING EXCESSIVELY.
   ELEMENT FINAL_PART-1.4198 IS DISTORTING EXCESSIVELY.
   ELEMENT FINAL_PART-1.4200 IS DISTORTING EXCESSIVELY.
   ELEMENT FINAL_PART-1.4201 IS DISTORTING EXCESSIVELY.
   ELEMENT FINAL_PART-1.4205 IS DISTORTING EXCESSIVELY.
   ELEMENT FINAL_PART-1.4206 IS DISTORTING EXCESSIVELY.
   ELEMENT FINAL_PART-1.4210 IS DISTORTING EXCESSIVELY.
   ELEMENT FINAL_PART-1.4212 IS DISTORTING EXCESSIVELY.
   ELEMENT FINAL_PART-1.4213 IS DISTORTING EXCESSIVELY.
   ELEMENT FINAL_PART-1.4214 IS DISTORTING EXCESSIVELY.
   ELEMENT FINAL_PART-1.4215 IS DISTORTING EXCESSIVELY.
   ELEMENT FINAL_PART-1.4216 IS DISTORTING EXCESSIVELY.
   ELEMENT FINAL_PART-1.4217 IS DISTORTING EXCESSIVELY.
   ELEMENT FINAL_PART-1.4218 IS DISTORTING EXCESSIVELY.
   ELEMENT FINAL_PART-1.4220 IS DISTORTING EXCESSIVELY.
   ELEMENT FINAL_PART-1.4221 IS DISTORTING EXCESSIVELY.
   ELEMENT FINAL_PART-1.4224 IS DISTORTING EXCESSIVELY.
   ELEMENT FINAL_PART-1.4225 IS DISTORTING EXCESSIVELY.
   ELEMENT FINAL_PART-1.4227 IS DISTORTING EXCESSIVELY.
   ELEMENT FINAL_PART-1.4228 IS DISTORTING EXCESSIVELY.
   ELEMENT FINAL_PART-1.4231 IS DISTORTING EXCESSIVELY.
   ELEMENT FINAL_PART-1.4232 IS DISTORTING EXCESSIVELY.
   ELEMENT FINAL_PART-1.4236 IS DISTORTING EXCESSIVELY.
   ELEMENT FINAL_PART-1.4237 IS DISTORTING EXCESSIVELY.
   ELEMENT FINAL_PART-1.4239 IS DISTORTING EXCESSIVELY.
   ELEMENT FINAL_PART-1.4240 IS DISTORTING EXCESSIVELY.
   ELEMENT FINAL_PART-1.4241 IS DISTORTING EXCESSIVELY.
   ELEMENT FINAL_PART-1.4242 IS DISTORTING EXCESSIVELY.
   ELEMENT FINAL_PART-1.4244 IS DISTORTING EXCESSIVELY.
   ELEMENT FINAL_PART-1.4245 IS DISTORTING EXCESSIVELY.
   ELEMENT FINAL_PART-1.4246 IS DISTORTING EXCESSIVELY.
   ELEMENT FINAL_PART-1.4248 IS DISTORTING EXCESSIVELY.
   ELEMENT FINAL_PART-1.4249 IS DISTORTING EXCESSIVELY.
   ELEMENT FINAL_PART-1.4251 IS DISTORTING EXCESSIVELY.
   ELEMENT FINAL_PART-1.4256 IS DISTORTING EXCESSIVELY.
   ELEMENT FINAL_PART-1.4258 IS DISTORTING EXCESSIVELY.
   ELEMENT FINAL_PART-1.4259 IS DISTORTING EXCESSIVELY.
   ELEMENT FINAL_PART-1.4260 IS DISTORTING EXCESSIVELY.
   ELEMENT FINAL_PART-1.4262 IS DISTORTING EXCESSIVELY.
   ELEMENT FINAL_PART-1.4263 IS DISTORTING EXCESSIVELY.
   ELEMENT FINAL_PART-1.4265 IS DISTORTING EXCESSIVELY.
   ELEMENT FINAL_PART-1.4269 IS DISTORTING EXCESSIVELY.
   ELEMENT FINAL_PART-1.4270 IS DISTORTING EXCESSIVELY.
   ELEMENT FINAL_PART-1.4275 IS DISTORTING EXCESSIVELY.
   ELEMENT FINAL_PART-1.4276 IS DISTORTING EXCESSIVELY.
   ELEMENT FINAL_PART-1.4277 IS DISTORTING EXCESSIVELY.
   ELEMENT FINAL_PART-1.4278 IS DISTORTING EXCESSIVELY.
   ELEMENT FINAL_PART-1.4282 IS DISTORTING EXCESSIVELY.
   ELEMENT FINAL_PART-1.4284 IS DISTORTING EXCESSIVELY.
   ELEMENT FINAL_PART-1.4286 IS DISTORTING EXCESSIVELY.
   ELEMENT FINAL_PART-1.4290 IS DISTORTING EXCESSIVELY.
   ELEMENT FINAL_PART-1.4292 IS DISTORTING EXCESSIVELY.
   ELEMENT FINAL_PART-1.4295 IS DISTORTING EXCESSIVELY.
   ELEMENT FINAL_PART-1.4296 IS DISTORTING EXCESSIVELY.
   ELEMENT FINAL_PART-1.4301 IS DISTORTING EXCESSIVELY.
   ELEMENT FINAL_PART-1.4302 IS DISTORTING EXCESSIVELY.
   ELEMENT FINAL_PART-1.4305 IS DISTORTING EXCESSIVELY.
   ELEMENT FINAL_PART-1.4309 IS DISTORTING EXCESSIVELY.
   ELEMENT FINAL_PART-1.4315 IS DISTORTING EXCESSIVELY.
   ELEMENT FINAL_PART-1.4316 IS DISTORTING EXCESSIVELY.
   ELEMENT FINAL_PART-1.4317 IS DISTORTING EXCESSIVELY.
   ELEMENT FINAL_PART-1.4318 IS DISTORTING EXCESSIVELY.
   ELEMENT FINAL_PART-1.4320 IS DISTORTING EXCESSIVELY.
   ELEMENT FINAL_PART-1.4324 IS DISTORTING EXCESSIVELY.
   ELEMENT FINAL_PART-1.4326 IS DISTORTING EXCESSIVELY.
   ELEMENT FINAL_PART-1.4327 IS DISTORTING EXCESSIVELY.
   ELEMENT FINAL_PART-1.4328 IS DISTORTING EXCESSIVELY.
   ELEMENT FINAL_PART-1.4329 IS DISTORTING EXCESSIVELY.
   ELEMENT FINAL_PART-1.4332 IS DISTORTING EXCESSIVELY.
   ELEMENT FINAL_PART-1.4333 IS DISTORTING EXCESSIVELY.
   ELEMENT FINAL_PART-1.4334 IS DISTORTING EXCESSIVELY.
   ELEMENT FINAL_PART-1.4335 IS DISTORTING EXCESSIVELY.
   ELEMENT FINAL_PART-1.4336 IS DISTORTING EXCESSIVELY.
   ELEMENT FINAL_PART-1.4338 IS DISTORTING EXCESSIVELY.
   ELEMENT FINAL_PART-1.4339 IS DISTORTING EXCESSIVELY.
   ELEMENT FINAL_PART-1.4340 IS DISTORTING EXCESSIVELY.
   ELEMENT FINAL_PART-1.4341 IS DISTORTING EXCESSIVELY.
   ELEMENT FINAL_PART-1.4342 IS DISTORTING EXCESSIVELY.
   ELEMENT FINAL_PART-1.4344 IS DISTORTING EXCESSIVELY.
   ELEMENT FINAL_PART-1.4346 IS DISTORTING EXCESSIVELY.
   ELEMENT FINAL_PART-1.4347 IS DISTORTING EXCESSIVELY.
   ELEMENT FINAL_PART-1.4350 IS DISTORTING EXCESSIVELY.
   ELEMENT FINAL_PART-1.6145 IS DISTORTING EXCESSIVELY.
   ELEMENT FINAL_PART-1.6148 IS DISTORTING EXCESSIVELY.
   ELEMENT FINAL_PART-1.6150 IS DISTORTING EXCESSIVELY.
   ELEMENT FINAL_PART-1.6152 IS DISTORTING EXCESSIVELY.
   ELEMENT FINAL_PART-1.6154 IS DISTORTING EXCESSIVELY.
   ELEMENT FINAL_PART-1.6155 IS DISTORTING EXCESSIVELY.
   ELEMENT FINAL_PART-1.6158 IS DISTORTING EXCESSIVELY.
   ELEMENT FINAL_PART-1.6159 IS DISTORTING EXCESSIVELY.
   ELEMENT FINAL_PART-1.6160 IS DISTORTING EXCESSIVELY.
   ELEMENT FINAL_PART-1.6163 IS DISTORTING EXCESSIVELY.
   ELEMENT FINAL_PART-1.6165 IS DISTORTING EXCESSIVELY.
   ELEMENT FINAL_PART-1.6168 IS DISTORTING EXCESSIVELY.
   ELEMENT FINAL_PART-1.6169 IS DISTORTING EXCESSIVELY.
   ELEMENT FINAL_PART-1.6171 IS DISTORTING EXCESSIVELY.
   ELEMENT FINAL_PART-1.6172 IS DISTORTING EXCESSIVELY.
   ELEMENT FINAL_PART-1.6173 IS DISTORTING EXCESSIVELY.
   ELEMENT FINAL_PART-1.6175 IS DISTORTING EXCESSIVELY.
   ELEMENT FINAL_PART-1.6176 IS DISTORTING EXCESSIVELY.
   ELEMENT FINAL_PART-1.6179 IS DISTORTING EXCESSIVELY.
   ELEMENT FINAL_PART-1.6180 IS DISTORTING EXCESSIVELY.
   ELEMENT FINAL_PART-1.6181 IS DISTORTING EXCESSIVELY.
   ELEMENT FINAL_PART-1.6182 IS DISTORTING EXCESSIVELY.
   ELEMENT FINAL_PART-1.6183 IS DISTORTING EXCESSIVELY.
   ELEMENT FINAL_PART-1.6184 IS DISTORTING EXCESSIVELY.
   ELEMENT FINAL_PART-1.6185 IS DISTORTING EXCESSIVELY.
   ELEMENT FINAL_PART-1.6186 IS DISTORTING EXCESSIVELY.
   ELEMENT FINAL_PART-1.6187 IS DISTORTING EXCESSIVELY.
   ELEMENT FINAL_PART-1.6188 IS DISTORTING EXCESSIVELY.
   ELEMENT FINAL_PART-1.6189 IS DISTORTING EXCESSIVELY.
   ELEMENT FINAL_PART-1.6190 IS DISTORTING EXCESSIVELY.
   ELEMENT FINAL_PART-1.6193 IS DISTORTING EXCESSIVELY.
   ELEMENT FINAL_PART-1.6194 IS DISTORTING EXCESSIVELY.
   ELEMENT FINAL_PART-1.6196 IS DISTORTING EXCESSIVELY.
   ELEMENT FINAL_PART-1.6198 IS DISTORTING EXCESSIVELY.
   ELEMENT FINAL_PART-1.6203 IS DISTORTING EXCESSIVELY.
   ELEMENT FINAL_PART-1.6207 IS DISTORTING EXCESSIVELY.
   ELEMENT FINAL_PART-1.6208 IS DISTORTING EXCESSIVELY.
   ELEMENT FINAL_PART-1.6209 IS DISTORTING EXCESSIVELY.
   ELEMENT FINAL_PART-1.6210 IS DISTORTING EXCESSIVELY.
   ELEMENT FINAL_PART-1.6211 IS DISTORTING EXCESSIVELY.
   ELEMENT FINAL_PART-1.6213 IS DISTORTING EXCESSIVELY.
   ELEMENT FINAL_PART-1.6215 IS DISTORTING EXCESSIVELY.
   ELEMENT FINAL_PART-1.6217 IS DISTORTING EXCESSIVELY.
   ELEMENT FINAL_PART-1.6219 IS DISTORTING EXCESSIVELY.
   ELEMENT FINAL_PART-1.6220 IS DISTORTING EXCESSIVELY.
   ELEMENT FINAL_PART-1.6221 IS DISTORTING EXCESSIVELY.
   ELEMENT FINAL_PART-1.6222 IS DISTORTING EXCESSIVELY.
   ELEMENT FINAL_PART-1.6225 IS DISTORTING EXCESSIVELY.
   ELEMENT FINAL_PART-1.6226 IS DISTORTING EXCESSIVELY.
   ELEMENT FINAL_PART-1.6228 IS DISTORTING EXCESSIVELY.
   ELEMENT FINAL_PART-1.6229 IS DISTORTING EXCESSIVELY.
   ELEMENT FINAL_PART-1.6230 IS DISTORTING EXCESSIVELY.
   ELEMENT FINAL_PART-1.6231 IS DISTORTING EXCESSIVELY.
   ELEMENT FINAL_PART-1.6233 IS DISTORTING EXCESSIVELY.
   ELEMENT FINAL_PART-1.6234 IS DISTORTING EXCESSIVELY.
   ELEMENT FINAL_PART-1.6235 IS DISTORTING EXCESSIVELY.
   ELEMENT FINAL_PART-1.6236 IS DISTORTING EXCESSIVELY.
   ELEMENT FINAL_PART-1.6237 IS DISTORTING EXCESSIVELY.
   ELEMENT FINAL_PART-1.6239 IS DISTORTING EXCESSIVELY.
   ELEMENT FINAL_PART-1.6241 IS DISTORTING EXCESSIVELY.
   ELEMENT FINAL_PART-1.6242 IS DISTORTING EXCESSIVELY.
   ELEMENT FINAL_PART-1.6247 IS DISTORTING EXCESSIVELY.
   ELEMENT FINAL_PART-1.6248 IS DISTORTING EXCESSIVELY.
   ELEMENT FINAL_PART-1.6253 IS DISTORTING EXCESSIVELY.
   ELEMENT FINAL_PART-1.6256 IS DISTORTING EXCESSIVELY.
   ELEMENT FINAL_PART-1.6257 IS DISTORTING EXCESSIVELY.
   ELEMENT FINAL_PART-1.6258 IS DISTORTING EXCESSIVELY.
   ELEMENT FINAL_PART-1.6260 IS DISTORTING EXCESSIVELY.
   ELEMENT FINAL_PART-1.6261 IS DISTORTING EXCESSIVELY.
   ELEMENT FINAL_PART-1.6263 IS DISTORTING EXCESSIVELY.
   ELEMENT FINAL_PART-1.6266 IS DISTORTING EXCESSIVELY.
   ELEMENT FINAL_PART-1.6267 IS DISTORTING EXCESSIVELY.
   ELEMENT FINAL_PART-1.6270 IS DISTORTING EXCESSIVELY.
   ELEMENT FINAL_PART-1.6271 IS DISTORTING EXCESSIVELY.
   ELEMENT FINAL_PART-1.6274 IS DISTORTING EXCESSIVELY.
   ELEMENT FINAL_PART-1.6275 IS DISTORTING EXCESSIVELY.
   ELEMENT FINAL_PART-1.6276 IS DISTORTING EXCESSIVELY.
   ELEMENT FINAL_PART-1.6278 IS DISTORTING EXCESSIVELY.
   ELEMENT FINAL_PART-1.6280 IS DISTORTING EXCESSIVELY.
   ELEMENT FINAL_PART-1.6283 IS DISTORTING EXCESSIVELY.
   ELEMENT FINAL_PART-1.6285 IS DISTORTING EXCESSIVELY.
   ELEMENT FINAL_PART-1.6288 IS DISTORTING EXCESSIVELY.
   ELEMENT FINAL_PART-1.6291 IS DISTORTING EXCESSIVELY.
   ELEMENT FINAL_PART-1.6292 IS DISTORTING EXCESSIVELY.
   ELEMENT FINAL_PART-1.6295 IS DISTORTING EXCESSIVELY.
   ELEMENT FINAL_PART-1.6296 IS DISTORTING EXCESSIVELY.
   ELEMENT FINAL_PART-1.6297 IS DISTORTING EXCESSIVELY.
   ELEMENT FINAL_PART-1.6300 IS DISTORTING EXCESSIVELY.
   ELEMENT FINAL_PART-1.6302 IS DISTORTING EXCESSIVELY.
   ELEMENT FINAL_PART-1.6308 IS DISTORTING EXCESSIVELY.
   ELEMENT FINAL_PART-1.6309 IS DISTORTING EXCESSIVELY.
   ELEMENT FINAL_PART-1.6310 IS DISTORTING EXCESSIVELY.
   ELEMENT FINAL_PART-1.6314 IS DISTORTING EXCESSIVELY.
   ELEMENT FINAL_PART-1.6315 IS DISTORTING EXCESSIVELY.
   ELEMENT FINAL_PART-1.6316 IS DISTORTING EXCESSIVELY.
   ELEMENT FINAL_PART-1.6317 IS DISTORTING EXCESSIVELY.
   ELEMENT FINAL_PART-1.6319 IS DISTORTING EXCESSIVELY.
   ELEMENT FINAL_PART-1.6322 IS DISTORTING EXCESSIVELY.
   ELEMENT FINAL_PART-1.6324 IS DISTORTING EXCESSIVELY.
   ELEMENT FINAL_PART-1.6325 IS DISTORTING EXCESSIVELY.
   ELEMENT FINAL_PART-1.6326 IS DISTORTING EXCESSIVELY.
   ELEMENT FINAL_PART-1.6327 IS DISTORTING EXCESSIVELY.
   ELEMENT FINAL_PART-1.6329 IS DISTORTING EXCESSIVELY.
   ELEMENT FINAL_PART-1.6332 IS DISTORTING EXCESSIVELY.
   ELEMENT FINAL_PART-1.6334 IS DISTORTING EXCESSIVELY.
   ELEMENT FINAL_PART-1.6342 IS DISTORTING EXCESSIVELY.
   ELEMENT FINAL_PART-1.6343 IS DISTORTING EXCESSIVELY.
   ELEMENT FINAL_PART-1.6344 IS DISTORTING EXCESSIVELY.
   ELEMENT FINAL_PART-1.6346 IS DISTORTING EXCESSIVELY.
   ELEMENT FINAL_PART-1.6348 IS DISTORTING EXCESSIVELY.
   ELEMENT FINAL_PART-1.6349 IS DISTORTING EXCESSIVELY.
   ELEMENT FINAL_PART-1.6351 IS DISTORTING EXCESSIVELY.
   ELEMENT FINAL_PART-1.6352 IS DISTORTING EXCESSIVELY.
   ELEMENT FINAL_PART-1.6354 IS DISTORTING EXCESSIVELY.
   ELEMENT FINAL_PART-1.6355 IS DISTORTING EXCESSIVELY.
   ELEMENT FINAL_PART-1.6359 IS DISTORTING EXCESSIVELY.
   ELEMENT FINAL_PART-1.6360 IS DISTORTING EXCESSIVELY.
   ELEMENT FINAL_PART-1.6365 IS DISTORTING EXCESSIVELY.
   ELEMENT FINAL_PART-1.6367 IS DISTORTING EXCESSIVELY.
   ELEMENT FINAL_PART-1.6370 IS DISTORTING EXCESSIVELY.
   ELEMENT FINAL_PART-1.6371 IS DISTORTING EXCESSIVELY.
   ELEMENT FINAL_PART-1.6372 IS DISTORTING EXCESSIVELY.
   ELEMENT FINAL_PART-1.6373 IS DISTORTING EXCESSIVELY.
   ELEMENT FINAL_PART-1.6376 IS DISTORTING EXCESSIVELY.
   ELEMENT FINAL_PART-1.6377 IS DISTORTING EXCESSIVELY.
   ELEMENT FINAL_PART-1.6380 IS DISTORTING EXCESSIVELY.
   ELEMENT FINAL_PART-1.6381 IS DISTORTING EXCESSIVELY.
   ELEMENT FINAL_PART-1.6382 IS DISTORTING EXCESSIVELY.
   ELEMENT FINAL_PART-1.6384 IS DISTORTING EXCESSIVELY.
   ELEMENT FINAL_PART-1.6385 IS DISTORTING EXCESSIVELY.
   ELEMENT FINAL_PART-1.6386 IS DISTORTING EXCESSIVELY.
   ELEMENT FINAL_PART-1.6387 IS DISTORTING EXCESSIVELY.
   ELEMENT FINAL_PART-1.6388 IS DISTORTING EXCESSIVELY.
   ELEMENT FINAL_PART-1.6389 IS DISTORTING EXCESSIVELY.
   ELEMENT FINAL_PART-1.6391 IS DISTORTING EXCESSIVELY.
   ELEMENT FINAL_PART-1.6393 IS DISTORTING EXCESSIVELY.
   ELEMENT FINAL_PART-1.6394 IS DISTORTING EXCESSIVELY.
   ELEMENT FINAL_PART-1.6395 IS DISTORTING EXCESSIVELY.
   ELEMENT FINAL_PART-1.6397 IS DISTORTING EXCESSIVELY.
   ELEMENT FINAL_PART-1.6399 IS DISTORTING EXCESSIVELY.
   ELEMENT FINAL_PART-1.6400 IS DISTORTING EXCESSIVELY.
   ELEMENT FINAL_PART-1.8193 IS DISTORTING EXCESSIVELY.
   ELEMENT FINAL_PART-1.8195 IS DISTORTING EXCESSIVELY.
   ELEMENT FINAL_PART-1.8196 IS DISTORTING EXCESSIVELY.
   ELEMENT FINAL_PART-1.8197 IS DISTORTING EXCESSIVELY.
   ELEMENT FINAL_PART-1.8200 IS DISTORTING EXCESSIVELY.
   ELEMENT FINAL_PART-1.8201 IS DISTORTING EXCESSIVELY.
   ELEMENT FINAL_PART-1.8203 IS DISTORTING EXCESSIVELY.
   ELEMENT FINAL_PART-1.8204 IS DISTORTING EXCESSIVELY.
   ELEMENT FINAL_PART-1.8209 IS DISTORTING EXCESSIVELY.
   ELEMENT FINAL_PART-1.8210 IS DISTORTING EXCESSIVELY.
   ELEMENT FINAL_PART-1.8215 IS DISTORTING EXCESSIVELY.
   ELEMENT FINAL_PART-1.8216 IS DISTORTING EXCESSIVELY.
   ELEMENT FINAL_PART-1.8218 IS DISTORTING EXCESSIVELY.
   ELEMENT FINAL_PART-1.8219 IS DISTORTING EXCESSIVELY.
   ELEMENT FINAL_PART-1.8220 IS DISTORTING EXCESSIVELY.
   ELEMENT FINAL_PART-1.8221 IS DISTORTING EXCESSIVELY.
   ELEMENT FINAL_PART-1.8223 IS DISTORTING EXCESSIVELY.
   ELEMENT FINAL_PART-1.8227 IS DISTORTING EXCESSIVELY.
   ELEMENT FINAL_PART-1.8228 IS DISTORTING EXCESSIVELY.
   ELEMENT FINAL_PART-1.8230 IS DISTORTING EXCESSIVELY.
   ELEMENT FINAL_PART-1.8238 IS DISTORTING EXCESSIVELY.
   ELEMENT FINAL_PART-1.8239 IS DISTORTING EXCESSIVELY.
   ELEMENT FINAL_PART-1.8241 IS DISTORTING EXCESSIVELY.
   ELEMENT FINAL_PART-1.8242 IS DISTORTING EXCESSIVELY.
   ELEMENT FINAL_PART-1.8243 IS DISTORTING EXCESSIVELY.
   ELEMENT FINAL_PART-1.8244 IS DISTORTING EXCESSIVELY.
   ELEMENT FINAL_PART-1.8246 IS DISTORTING EXCESSIVELY.
   ELEMENT FINAL_PART-1.8247 IS DISTORTING EXCESSIVELY.
   ELEMENT FINAL_PART-1.8249 IS DISTORTING EXCESSIVELY.
   ELEMENT FINAL_PART-1.8251 IS DISTORTING EXCESSIVELY.
   ELEMENT FINAL_PART-1.8252 IS DISTORTING EXCESSIVELY.
   ELEMENT FINAL_PART-1.8253 IS DISTORTING EXCESSIVELY.
   ELEMENT FINAL_PART-1.8256 IS DISTORTING EXCESSIVELY.
   ELEMENT FINAL_PART-1.8258 IS DISTORTING EXCESSIVELY.
   ELEMENT FINAL_PART-1.8259 IS DISTORTING EXCESSIVELY.
   ELEMENT FINAL_PART-1.8261 IS DISTORTING EXCESSIVELY.
   ELEMENT FINAL_PART-1.8262 IS DISTORTING EXCESSIVELY.
   ELEMENT FINAL_PART-1.8264 IS DISTORTING EXCESSIVELY.
   ELEMENT FINAL_PART-1.8265 IS DISTORTING EXCESSIVELY.
   ELEMENT FINAL_PART-1.8266 IS DISTORTING EXCESSIVELY.
   ELEMENT FINAL_PART-1.8267 IS DISTORTING EXCESSIVELY.
   ELEMENT FINAL_PART-1.8269 IS DISTORTING EXCESSIVELY.
   ELEMENT FINAL_PART-1.8270 IS DISTORTING EXCESSIVELY.
   ELEMENT FINAL_PART-1.8271 IS DISTORTING EXCESSIVELY.
   ELEMENT FINAL_PART-1.8274 IS DISTORTING EXCESSIVELY.
   ELEMENT FINAL_PART-1.8275 IS DISTORTING EXCESSIVELY.
   ELEMENT FINAL_PART-1.8276 IS DISTORTING EXCESSIVELY.
   ELEMENT FINAL_PART-1.8277 IS DISTORTING EXCESSIVELY.
   ELEMENT FINAL_PART-1.8278 IS DISTORTING EXCESSIVELY.
   ELEMENT FINAL_PART-1.8281 IS DISTORTING EXCESSIVELY.
   ELEMENT FINAL_PART-1.8282 IS DISTORTING EXCESSIVELY.
   ELEMENT FINAL_PART-1.8283 IS DISTORTING EXCESSIVELY.
   ELEMENT FINAL_PART-1.8284 IS DISTORTING EXCESSIVELY.
   ELEMENT FINAL_PART-1.8286 IS DISTORTING EXCESSIVELY.
   ELEMENT FINAL_PART-1.8287 IS DISTORTING EXCESSIVELY.
   ELEMENT FINAL_PART-1.8296 IS DISTORTING EXCESSIVELY.
   ELEMENT FINAL_PART-1.8298 IS DISTORTING EXCESSIVELY.
   ELEMENT FINAL_PART-1.8301 IS DISTORTING EXCESSIVELY.
   ELEMENT FINAL_PART-1.8302 IS DISTORTING EXCESSIVELY.
   ELEMENT FINAL_PART-1.8303 IS DISTORTING EXCESSIVELY.
   ELEMENT FINAL_PART-1.8308 IS DISTORTING EXCESSIVELY.
   ELEMENT FINAL_PART-1.8311 IS DISTORTING EXCESSIVELY.
   ELEMENT FINAL_PART-1.8314 IS DISTORTING EXCESSIVELY.
   ELEMENT FINAL_PART-1.8317 IS DISTORTING EXCESSIVELY.
   ELEMENT FINAL_PART-1.8319 IS DISTORTING EXCESSIVELY.
   ELEMENT FINAL_PART-1.8320 IS DISTORTING EXCESSIVELY.
   ELEMENT FINAL_PART-1.8322 IS DISTORTING EXCESSIVELY.
   ELEMENT FINAL_PART-1.8323 IS DISTORTING EXCESSIVELY.
   ELEMENT FINAL_PART-1.8324 IS DISTORTING EXCESSIVELY.
   ELEMENT FINAL_PART-1.8327 IS DISTORTING EXCESSIVELY.
   ELEMENT FINAL_PART-1.8331 IS DISTORTING EXCESSIVELY.
   ELEMENT FINAL_PART-1.8332 IS DISTORTING EXCESSIVELY.
   ELEMENT FINAL_PART-1.8335 IS DISTORTING EXCESSIVELY.
   ELEMENT FINAL_PART-1.8337 IS DISTORTING EXCESSIVELY.
   ELEMENT FINAL_PART-1.8340 IS DISTORTING EXCESSIVELY.
   ELEMENT FINAL_PART-1.8343 IS DISTORTING EXCESSIVELY.
   ELEMENT FINAL_PART-1.8346 IS DISTORTING EXCESSIVELY.
   ELEMENT FINAL_PART-1.8349 IS DISTORTING EXCESSIVELY.
   ELEMENT FINAL_PART-1.8350 IS DISTORTING EXCESSIVELY.
   ELEMENT FINAL_PART-1.8351 IS DISTORTING EXCESSIVELY.
   ELEMENT FINAL_PART-1.8353 IS DISTORTING EXCESSIVELY.
   ELEMENT FINAL_PART-1.8354 IS DISTORTING EXCESSIVELY.
   ELEMENT FINAL_PART-1.8358 IS DISTORTING EXCESSIVELY.
   ELEMENT FINAL_PART-1.8359 IS DISTORTING EXCESSIVELY.
   ELEMENT FINAL_PART-1.8361 IS DISTORTING EXCESSIVELY.
   ELEMENT FINAL_PART-1.8362 IS DISTORTING EXCESSIVELY.
   ELEMENT FINAL_PART-1.8364 IS DISTORTING EXCESSIVELY.
   ELEMENT FINAL_PART-1.8365 IS DISTORTING EXCESSIVELY.
   ELEMENT FINAL_PART-1.8366 IS DISTORTING EXCESSIVELY.
   ELEMENT FINAL_PART-1.8371 IS DISTORTING EXCESSIVELY.
   ELEMENT FINAL_PART-1.8373 IS DISTORTING EXCESSIVELY.
   ELEMENT FINAL_PART-1.8374 IS DISTORTING EXCESSIVELY.
   ELEMENT FINAL_PART-1.8379 IS DISTORTING EXCESSIVELY.
   ELEMENT FINAL_PART-1.8380 IS DISTORTING EXCESSIVELY.
   ELEMENT FINAL_PART-1.8381 IS DISTORTING EXCESSIVELY.
   ELEMENT FINAL_PART-1.8382 IS DISTORTING EXCESSIVELY.
   ELEMENT FINAL_PART-1.8383 IS DISTORTING EXCESSIVELY.
   ELEMENT FINAL_PART-1.8386 IS DISTORTING EXCESSIVELY.
   ELEMENT FINAL_PART-1.8387 IS DISTORTING EXCESSIVELY.
   ELEMENT FINAL_PART-1.8392 IS DISTORTING EXCESSIVELY.
   ELEMENT FINAL_PART-1.8393 IS DISTORTING EXCESSIVELY.
   ELEMENT FINAL_PART-1.8394 IS DISTORTING EXCESSIVELY.
   ELEMENT FINAL_PART-1.8395 IS DISTORTING EXCESSIVELY.
   ELEMENT FINAL_PART-1.8397 IS DISTORTING EXCESSIVELY.
   ELEMENT FINAL_PART-1.8399 IS DISTORTING EXCESSIVELY.
   ELEMENT FINAL_PART-1.8402 IS DISTORTING EXCESSIVELY.
   ELEMENT FINAL_PART-1.8404 IS DISTORTING EXCESSIVELY.
   ELEMENT FINAL_PART-1.8405 IS DISTORTING EXCESSIVELY.
   ELEMENT FINAL_PART-1.8407 IS DISTORTING EXCESSIVELY.
   ELEMENT FINAL_PART-1.8408 IS DISTORTING EXCESSIVELY.
   ELEMENT FINAL_PART-1.8409 IS DISTORTING EXCESSIVELY.
   ELEMENT FINAL_PART-1.8410 IS DISTORTING EXCESSIVELY.
   ELEMENT FINAL_PART-1.8411 IS DISTORTING EXCESSIVELY.
   ELEMENT FINAL_PART-1.8412 IS DISTORTING EXCESSIVELY.
   ELEMENT FINAL_PART-1.8414 IS DISTORTING EXCESSIVELY.
   ELEMENT FINAL_PART-1.8419 IS DISTORTING EXCESSIVELY.
   ELEMENT FINAL_PART-1.8422 IS DISTORTING EXCESSIVELY.
   ELEMENT FINAL_PART-1.8423 IS DISTORTING EXCESSIVELY.
   ELEMENT FINAL_PART-1.8424 IS DISTORTING EXCESSIVELY.
   ELEMENT FINAL_PART-1.8426 IS DISTORTING EXCESSIVELY.
   ELEMENT FINAL_PART-1.8428 IS DISTORTING EXCESSIVELY.
   ELEMENT FINAL_PART-1.8429 IS DISTORTING EXCESSIVELY.
   ELEMENT FINAL_PART-1.8431 IS DISTORTING EXCESSIVELY.
   ELEMENT FINAL_PART-1.8432 IS DISTORTING EXCESSIVELY.
   ELEMENT FINAL_PART-1.8434 IS DISTORTING EXCESSIVELY.
   ELEMENT FINAL_PART-1.8435 IS DISTORTING EXCESSIVELY.
   ELEMENT FINAL_PART-1.8437 IS DISTORTING EXCESSIVELY.
   ELEMENT FINAL_PART-1.8439 IS DISTORTING EXCESSIVELY.
   ELEMENT FINAL_PART-1.8441 IS DISTORTING EXCESSIVELY.
   ELEMENT FINAL_PART-1.8448 IS DISTORTING EXCESSIVELY.
   ELEMENT FINAL_PART-1.10241 IS DISTORTING EXCESSIVELY.
   ELEMENT FINAL_PART-1.10242 IS DISTORTING EXCESSIVELY.
   ELEMENT FINAL_PART-1.10243 IS DISTORTING EXCESSIVELY.
   ELEMENT FINAL_PART-1.10246 IS DISTORTING EXCESSIVELY.
   ELEMENT FINAL_PART-1.10248 IS DISTORTING EXCESSIVELY.
   ELEMENT FINAL_PART-1.10249 IS DISTORTING EXCESSIVELY.
   ELEMENT FINAL_PART-1.10250 IS DISTORTING EXCESSIVELY.
   ELEMENT FINAL_PART-1.10251 IS DISTORTING EXCESSIVELY.
   ELEMENT FINAL_PART-1.10253 IS DISTORTING EXCESSIVELY.
   ELEMENT FINAL_PART-1.10255 IS DISTORTING EXCESSIVELY.
   ELEMENT FINAL_PART-1.10256 IS DISTORTING EXCESSIVELY.
   ELEMENT FINAL_PART-1.10258 IS DISTORTING EXCESSIVELY.
   ELEMENT FINAL_PART-1.10259 IS DISTORTING EXCESSIVELY.
   ELEMENT FINAL_PART-1.10260 IS DISTORTING EXCESSIVELY.
   ELEMENT FINAL_PART-1.10261 IS DISTORTING EXCESSIVELY.
   ELEMENT FINAL_PART-1.10265 IS DISTORTING EXCESSIVELY.
   ELEMENT FINAL_PART-1.10266 IS DISTORTING EXCESSIVELY.
   ELEMENT FINAL_PART-1.10268 IS DISTORTING EXCESSIVELY.
   ELEMENT FINAL_PART-1.10269 IS DISTORTING EXCESSIVELY.
   ELEMENT FINAL_PART-1.10270 IS DISTORTING EXCESSIVELY.
   ELEMENT FINAL_PART-1.10271 IS DISTORTING EXCESSIVELY.
   ELEMENT FINAL_PART-1.10272 IS DISTORTING EXCESSIVELY.
   ELEMENT FINAL_PART-1.10273 IS DISTORTING EXCESSIVELY.
   ELEMENT FINAL_PART-1.10274 IS DISTORTING EXCESSIVELY.
   ELEMENT FINAL_PART-1.10276 IS DISTORTING EXCESSIVELY.
   ELEMENT FINAL_PART-1.10277 IS DISTORTING EXCESSIVELY.
   ELEMENT FINAL_PART-1.10279 IS DISTORTING EXCESSIVELY.
   ELEMENT FINAL_PART-1.10280 IS DISTORTING EXCESSIVELY.
   ELEMENT FINAL_PART-1.10282 IS DISTORTING EXCESSIVELY.
   ELEMENT FINAL_PART-1.10283 IS DISTORTING EXCESSIVELY.
   ELEMENT FINAL_PART-1.10285 IS DISTORTING EXCESSIVELY.
   ELEMENT FINAL_PART-1.10286 IS DISTORTING EXCESSIVELY.
   ELEMENT FINAL_PART-1.10288 IS DISTORTING EXCESSIVELY.
   ELEMENT FINAL_PART-1.10290 IS DISTORTING EXCESSIVELY.
   ELEMENT FINAL_PART-1.10291 IS DISTORTING EXCESSIVELY.
   ELEMENT FINAL_PART-1.10293 IS DISTORTING EXCESSIVELY.
   ELEMENT FINAL_PART-1.10296 IS DISTORTING EXCESSIVELY.
   ELEMENT FINAL_PART-1.10297 IS DISTORTING EXCESSIVELY.
   ELEMENT FINAL_PART-1.10299 IS DISTORTING EXCESSIVELY.
   ELEMENT FINAL_PART-1.10302 IS DISTORTING EXCESSIVELY.
   ELEMENT FINAL_PART-1.10303 IS DISTORTING EXCESSIVELY.
   ELEMENT FINAL_PART-1.10305 IS DISTORTING EXCESSIVELY.
   ELEMENT FINAL_PART-1.10306 IS DISTORTING EXCESSIVELY.
   ELEMENT FINAL_PART-1.10308 IS DISTORTING EXCESSIVELY.
   ELEMENT FINAL_PART-1.10310 IS DISTORTING EXCESSIVELY.
   ELEMENT FINAL_PART-1.10321 IS DISTORTING EXCESSIVELY.
   ELEMENT FINAL_PART-1.10324 IS DISTORTING EXCESSIVELY.
   ELEMENT FINAL_PART-1.10325 IS DISTORTING EXCESSIVELY.
   ELEMENT FINAL_PART-1.10326 IS DISTORTING EXCESSIVELY.
   ELEMENT FINAL_PART-1.10327 IS DISTORTING EXCESSIVELY.
   ELEMENT FINAL_PART-1.10332 IS DISTORTING EXCESSIVELY.
   ELEMENT FINAL_PART-1.10333 IS DISTORTING EXCESSIVELY.
   ELEMENT FINAL_PART-1.10335 IS DISTORTING EXCESSIVELY.
   ELEMENT FINAL_PART-1.10336 IS DISTORTING EXCESSIVELY.
   ELEMENT FINAL_PART-1.10338 IS DISTORTING EXCESSIVELY.
   ELEMENT FINAL_PART-1.10341 IS DISTORTING EXCESSIVELY.
   ELEMENT FINAL_PART-1.10345 IS DISTORTING EXCESSIVELY.
   ELEMENT FINAL_PART-1.10349 IS DISTORTING EXCESSIVELY.
   ELEMENT FINAL_PART-1.10351 IS DISTORTING EXCESSIVELY.
   ELEMENT FINAL_PART-1.10352 IS DISTORTING EXCESSIVELY.
   ELEMENT FINAL_PART-1.10356 IS DISTORTING EXCESSIVELY.
   ELEMENT FINAL_PART-1.10357 IS DISTORTING EXCESSIVELY.
   ELEMENT FINAL_PART-1.10364 IS DISTORTING EXCESSIVELY.
   ELEMENT FINAL_PART-1.10366 IS DISTORTING EXCESSIVELY.
   ELEMENT FINAL_PART-1.10368 IS DISTORTING EXCESSIVELY.
   ELEMENT FINAL_PART-1.10370 IS DISTORTING EXCESSIVELY.
   ELEMENT FINAL_PART-1.10371 IS DISTORTING EXCESSIVELY.
   ELEMENT FINAL_PART-1.10373 IS DISTORTING EXCESSIVELY.
   ELEMENT FINAL_PART-1.10376 IS DISTORTING EXCESSIVELY.
   ELEMENT FINAL_PART-1.10377 IS DISTORTING EXCESSIVELY.
   ELEMENT FINAL_PART-1.10378 IS DISTORTING EXCESSIVELY.
   ELEMENT FINAL_PART-1.10379 IS DISTORTING EXCESSIVELY.
   ELEMENT FINAL_PART-1.10381 IS DISTORTING EXCESSIVELY.
   ELEMENT FINAL_PART-1.10384 IS DISTORTING EXCESSIVELY.
   ELEMENT FINAL_PART-1.10385 IS DISTORTING EXCESSIVELY.
   ELEMENT FINAL_PART-1.10387 IS DISTORTING EXCESSIVELY.
   ELEMENT FINAL_PART-1.10389 IS DISTORTING EXCESSIVELY.
   ELEMENT FINAL_PART-1.10394 IS DISTORTING EXCESSIVELY.
   ELEMENT FINAL_PART-1.10396 IS DISTORTING EXCESSIVELY.
   ELEMENT FINAL_PART-1.10398 IS DISTORTING EXCESSIVELY.
   ELEMENT FINAL_PART-1.10402 IS DISTORTING EXCESSIVELY.
   ELEMENT FINAL_PART-1.10407 IS DISTORTING EXCESSIVELY.
   ELEMENT FINAL_PART-1.10408 IS DISTORTING EXCESSIVELY.
   ELEMENT FINAL_PART-1.10413 IS DISTORTING EXCESSIVELY.
   ELEMENT FINAL_PART-1.10414 IS DISTORTING EXCESSIVELY.
   ELEMENT FINAL_PART-1.10415 IS DISTORTING EXCESSIVELY.
   ELEMENT FINAL_PART-1.10419 IS DISTORTING EXCESSIVELY.
   ELEMENT FINAL_PART-1.10421 IS DISTORTING EXCESSIVELY.
   ELEMENT FINAL_PART-1.10424 IS DISTORTING EXCESSIVELY.
   ELEMENT FINAL_PART-1.10427 IS DISTORTING EXCESSIVELY.
   ELEMENT FINAL_PART-1.10431 IS DISTORTING EXCESSIVELY.
   ELEMENT FINAL_PART-1.10432 IS DISTORTING EXCESSIVELY.
   ELEMENT FINAL_PART-1.10436 IS DISTORTING EXCESSIVELY.
   ELEMENT FINAL_PART-1.10437 IS DISTORTING EXCESSIVELY.
   ELEMENT FINAL_PART-1.10438 IS DISTORTING EXCESSIVELY.
   ELEMENT FINAL_PART-1.10439 IS DISTORTING EXCESSIVELY.
   ELEMENT FINAL_PART-1.10440 IS DISTORTING EXCESSIVELY.
   ELEMENT FINAL_PART-1.10442 IS DISTORTING EXCESSIVELY.
   ELEMENT FINAL_PART-1.10443 IS DISTORTING EXCESSIVELY.
   ELEMENT FINAL_PART-1.10449 IS DISTORTING EXCESSIVELY.
   ELEMENT FINAL_PART-1.10450 IS DISTORTING EXCESSIVELY.
   ELEMENT FINAL_PART-1.10453 IS DISTORTING EXCESSIVELY.
   ELEMENT FINAL_PART-1.10456 IS DISTORTING EXCESSIVELY.
   ELEMENT FINAL_PART-1.10462 IS DISTORTING EXCESSIVELY.
   ELEMENT FINAL_PART-1.10465 IS DISTORTING EXCESSIVELY.
   ELEMENT FINAL_PART-1.10467 IS DISTORTING EXCESSIVELY.
   ELEMENT FINAL_PART-1.10468 IS DISTORTING EXCESSIVELY.
   ELEMENT FINAL_PART-1.10471 IS DISTORTING EXCESSIVELY.
   ELEMENT FINAL_PART-1.10472 IS DISTORTING EXCESSIVELY.
   ELEMENT FINAL_PART-1.10473 IS DISTORTING EXCESSIVELY.
   ELEMENT FINAL_PART-1.10480 IS DISTORTING EXCESSIVELY.
   ELEMENT FINAL_PART-1.10481 IS DISTORTING EXCESSIVELY.
   ELEMENT FINAL_PART-1.10484 IS DISTORTING EXCESSIVELY.
   ELEMENT FINAL_PART-1.10485 IS DISTORTING EXCESSIVELY.
   ELEMENT FINAL_PART-1.10494 IS DISTORTING EXCESSIVELY.
   ELEMENT FINAL_PART-1.10495 IS DISTORTING EXCESSIVELY.
   ELEMENT FINAL_PART-1.10496 IS DISTORTING EXCESSIVELY.
   ELEMENT FINAL_PART-1.12545 IS DISTORTING EXCESSIVELY.
   ELEMENT FINAL_PART-1.12550 IS DISTORTING EXCESSIVELY.
   ELEMENT FINAL_PART-1.12551 IS DISTORTING EXCESSIVELY.
   ELEMENT FINAL_PART-1.12553 IS DISTORTING EXCESSIVELY.
   ELEMENT FINAL_PART-1.12555 IS DISTORTING EXCESSIVELY.
   ELEMENT FINAL_PART-1.12558 IS DISTORTING EXCESSIVELY.
   ELEMENT FINAL_PART-1.12563 IS DISTORTING EXCESSIVELY.
   ELEMENT FINAL_PART-1.12566 IS DISTORTING EXCESSIVELY.
   ELEMENT FINAL_PART-1.12567 IS DISTORTING EXCESSIVELY.
   ELEMENT FINAL_PART-1.12568 IS DISTORTING EXCESSIVELY.
   ELEMENT FINAL_PART-1.12572 IS DISTORTING EXCESSIVELY.
   ELEMENT FINAL_PART-1.12576 IS DISTORTING EXCESSIVELY.
   ELEMENT FINAL_PART-1.12577 IS DISTORTING EXCESSIVELY.
   ELEMENT FINAL_PART-1.12581 IS DISTORTING EXCESSIVELY.
   ELEMENT FINAL_PART-1.12582 IS DISTORTING EXCESSIVELY.
   ELEMENT FINAL_PART-1.12583 IS DISTORTING EXCESSIVELY.
   ELEMENT FINAL_PART-1.12586 IS DISTORTING EXCESSIVELY.
   ELEMENT FINAL_PART-1.12587 IS DISTORTING EXCESSIVELY.
   ELEMENT FINAL_PART-1.12588 IS DISTORTING EXCESSIVELY.
   ELEMENT FINAL_PART-1.12589 IS DISTORTING EXCESSIVELY.
   ELEMENT FINAL_PART-1.12590 IS DISTORTING EXCESSIVELY.
   ELEMENT FINAL_PART-1.12591 IS DISTORTING EXCESSIVELY.
   ELEMENT FINAL_PART-1.12594 IS DISTORTING EXCESSIVELY.
   ELEMENT FINAL_PART-1.12595 IS DISTORTING EXCESSIVELY.
   ELEMENT FINAL_PART-1.12596 IS DISTORTING EXCESSIVELY.
   ELEMENT FINAL_PART-1.12597 IS DISTORTING EXCESSIVELY.
   ELEMENT FINAL_PART-1.12598 IS DISTORTING EXCESSIVELY.
   ELEMENT FINAL_PART-1.12601 IS DISTORTING EXCESSIVELY.
   ELEMENT FINAL_PART-1.12602 IS DISTORTING EXCESSIVELY.
   ELEMENT FINAL_PART-1.12603 IS DISTORTING EXCESSIVELY.
   ELEMENT FINAL_PART-1.12604 IS DISTORTING EXCESSIVELY.
   ELEMENT FINAL_PART-1.12605 IS DISTORTING EXCESSIVELY.
   ELEMENT FINAL_PART-1.12610 IS DISTORTING EXCESSIVELY.
   ELEMENT FINAL_PART-1.12612 IS DISTORTING EXCESSIVELY.
   ELEMENT FINAL_PART-1.12614 IS DISTORTING EXCESSIVELY.
   ELEMENT FINAL_PART-1.12618 IS DISTORTING EXCESSIVELY.
   ELEMENT FINAL_PART-1.12624 IS DISTORTING EXCESSIVELY.
   ELEMENT FINAL_PART-1.12626 IS DISTORTING EXCESSIVELY.
   ELEMENT FINAL_PART-1.12628 IS DISTORTING EXCESSIVELY.
   ELEMENT FINAL_PART-1.12631 IS DISTORTING EXCESSIVELY.
   ELEMENT FINAL_PART-1.12633 IS DISTORTING EXCESSIVELY.
   ELEMENT FINAL_PART-1.12634 IS DISTORTING EXCESSIVELY.
   ELEMENT FINAL_PART-1.12637 IS DISTORTING EXCESSIVELY.
   ELEMENT FINAL_PART-1.12639 IS DISTORTING EXCESSIVELY.
   ELEMENT FINAL_PART-1.12643 IS DISTORTING EXCESSIVELY.
   ELEMENT FINAL_PART-1.12644 IS DISTORTING EXCESSIVELY.
   ELEMENT FINAL_PART-1.12645 IS DISTORTING EXCESSIVELY.
   ELEMENT FINAL_PART-1.12646 IS DISTORTING EXCESSIVELY.
   ELEMENT FINAL_PART-1.12649 IS DISTORTING EXCESSIVELY.
   ELEMENT FINAL_PART-1.12650 IS DISTORTING EXCESSIVELY.
   ELEMENT FINAL_PART-1.12654 IS DISTORTING EXCESSIVELY.
   ELEMENT FINAL_PART-1.12655 IS DISTORTING EXCESSIVELY.
   ELEMENT FINAL_PART-1.12658 IS DISTORTING EXCESSIVELY.
   ELEMENT FINAL_PART-1.12661 IS DISTORTING EXCESSIVELY.
   ELEMENT FINAL_PART-1.12663 IS DISTORTING EXCESSIVELY.
   ELEMENT FINAL_PART-1.12665 IS DISTORTING EXCESSIVELY.
   ELEMENT FINAL_PART-1.12668 IS DISTORTING EXCESSIVELY.
   ELEMENT FINAL_PART-1.12669 IS DISTORTING EXCESSIVELY.
   ELEMENT FINAL_PART-1.12670 IS DISTORTING EXCESSIVELY.
   ELEMENT FINAL_PART-1.12671 IS DISTORTING EXCESSIVELY.
   ELEMENT FINAL_PART-1.12672 IS DISTORTING EXCESSIVELY.
   ELEMENT FINAL_PART-1.12673 IS DISTORTING EXCESSIVELY.
   ELEMENT FINAL_PART-1.12674 IS DISTORTING EXCESSIVELY.
   ELEMENT FINAL_PART-1.12677 IS DISTORTING EXCESSIVELY.
   ELEMENT FINAL_PART-1.12680 IS DISTORTING EXCESSIVELY.
   ELEMENT FINAL_PART-1.12681 IS DISTORTING EXCESSIVELY.
   ELEMENT FINAL_PART-1.12682 IS DISTORTING EXCESSIVELY.
   ELEMENT FINAL_PART-1.12683 IS DISTORTING EXCESSIVELY.
   ELEMENT FINAL_PART-1.12685 IS DISTORTING EXCESSIVELY.
   ELEMENT FINAL_PART-1.12686 IS DISTORTING EXCESSIVELY.
   ELEMENT FINAL_PART-1.12688 IS DISTORTING EXCESSIVELY.
   ELEMENT FINAL_PART-1.12691 IS DISTORTING EXCESSIVELY.
   ELEMENT FINAL_PART-1.12693 IS DISTORTING EXCESSIVELY.
   ELEMENT FINAL_PART-1.12695 IS DISTORTING EXCESSIVELY.
   ELEMENT FINAL_PART-1.12697 IS DISTORTING EXCESSIVELY.
   ELEMENT FINAL_PART-1.12700 IS DISTORTING EXCESSIVELY.
   ELEMENT FINAL_PART-1.12702 IS DISTORTING EXCESSIVELY.
   ELEMENT FINAL_PART-1.12703 IS DISTORTING EXCESSIVELY.
   ELEMENT FINAL_PART-1.12704 IS DISTORTING EXCESSIVELY.
   ELEMENT FINAL_PART-1.12705 IS DISTORTING EXCESSIVELY.
   ELEMENT FINAL_PART-1.12706 IS DISTORTING EXCESSIVELY.
   ELEMENT FINAL_PART-1.12707 IS DISTORTING EXCESSIVELY.
   ELEMENT FINAL_PART-1.12708 IS DISTORTING EXCESSIVELY.
   ELEMENT FINAL_PART-1.12709 IS DISTORTING EXCESSIVELY.
   ELEMENT FINAL_PART-1.12712 IS DISTORTING EXCESSIVELY.
   ELEMENT FINAL_PART-1.12715 IS DISTORTING EXCESSIVELY.
   ELEMENT FINAL_PART-1.12716 IS DISTORTING EXCESSIVELY.
   ELEMENT FINAL_PART-1.12717 IS DISTORTING EXCESSIVELY.
   ELEMENT FINAL_PART-1.12718 IS DISTORTING EXCESSIVELY.
   ELEMENT FINAL_PART-1.12725 IS DISTORTING EXCESSIVELY.
   ELEMENT FINAL_PART-1.12728 IS DISTORTING EXCESSIVELY.
   ELEMENT FINAL_PART-1.12729 IS DISTORTING EXCESSIVELY.
   ELEMENT FINAL_PART-1.12730 IS DISTORTING EXCESSIVELY.
   ELEMENT FINAL_PART-1.12732 IS DISTORTING EXCESSIVELY.
   ELEMENT FINAL_PART-1.12736 IS DISTORTING EXCESSIVELY.
   ELEMENT FINAL_PART-1.12743 IS DISTORTING EXCESSIVELY.
   ELEMENT FINAL_PART-1.12744 IS DISTORTING EXCESSIVELY.
   ELEMENT FINAL_PART-1.12748 IS DISTORTING EXCESSIVELY.
   ELEMENT FINAL_PART-1.12749 IS DISTORTING EXCESSIVELY.
   ELEMENT FINAL_PART-1.12750 IS DISTORTING EXCESSIVELY.
   ELEMENT FINAL_PART-1.12752 IS DISTORTING EXCESSIVELY.
   ELEMENT FINAL_PART-1.12753 IS DISTORTING EXCESSIVELY.
   ELEMENT FINAL_PART-1.12757 IS DISTORTING EXCESSIVELY.
   ELEMENT FINAL_PART-1.12763 IS DISTORTING EXCESSIVELY.
   ELEMENT FINAL_PART-1.12764 IS DISTORTING EXCESSIVELY.
   ELEMENT FINAL_PART-1.12765 IS DISTORTING EXCESSIVELY.
   ELEMENT FINAL_PART-1.12768 IS DISTORTING EXCESSIVELY.
   ELEMENT FINAL_PART-1.12774 IS DISTORTING EXCESSIVELY.
   ELEMENT FINAL_PART-1.12775 IS DISTORTING EXCESSIVELY.
   ELEMENT FINAL_PART-1.12776 IS DISTORTING EXCESSIVELY.
   ELEMENT FINAL_PART-1.12778 IS DISTORTING EXCESSIVELY.
   ELEMENT FINAL_PART-1.12779 IS DISTORTING EXCESSIVELY.
   ELEMENT FINAL_PART-1.12780 IS DISTORTING EXCESSIVELY.
   ELEMENT FINAL_PART-1.12785 IS DISTORTING EXCESSIVELY.
   ELEMENT FINAL_PART-1.12789 IS DISTORTING EXCESSIVELY.
   ELEMENT FINAL_PART-1.12791 IS DISTORTING EXCESSIVELY.
   ELEMENT FINAL_PART-1.12792 IS DISTORTING EXCESSIVELY.
   ELEMENT FINAL_PART-1.12795 IS DISTORTING EXCESSIVELY.
   ELEMENT FINAL_PART-1.12796 IS DISTORTING EXCESSIVELY.
   ELEMENT FINAL_PART-1.12797 IS DISTORTING EXCESSIVELY.
   ELEMENT FINAL_PART-1.12798 IS DISTORTING EXCESSIVELY.
   ELEMENT FINAL_PART-1.12800 IS DISTORTING EXCESSIVELY.
   ELEMENT FINAL_PART-1.14849 IS DISTORTING EXCESSIVELY.
   ELEMENT FINAL_PART-1.14851 IS DISTORTING EXCESSIVELY.
   ELEMENT FINAL_PART-1.14852 IS DISTORTING EXCESSIVELY.
[...]
          FORCE     EQUILIBRIUM NOT ACHIEVED WITHIN TOLERANCE.
 
	SYMMETRIC PURE THREAD-BASED DIRECT SPARSE SOLVER RUNNING ON
 	1 HOST x 1 MPI RANK PER HOST x 10 THREADS PER RANK
        NUMBER OF EQUATIONS:  494706
        NUMBER OF RHS:        1
        NUMBER OF FLOPS:      1.131e+11
        SOLVER ELAPSED TIME:  2.1s

               CONVERGENCE CHECKS FOR EQUILIBRIUM ITERATION     4


 AVERAGE FORCE                      3.866E-02   TIME AVG. FORCE       2.337E-02
 LARGEST SCALED RESIDUAL FORCE      1.209E-04   AT NODE       4298   DOF  3
   INSTANCE: FINAL_PART-1                                                                    
  CORRESPONDING RESIDUAL FORCE      1.209E-04
 LARGEST INCREMENT OF DISP.        -3.275E-03   AT NODE        328   DOF  3
   INSTANCE: FINAL_PART-1                                                                    
 LARGEST CORRECTION TO DISP.       -2.431E-07   AT NODE        315   DOF  3
   INSTANCE: FINAL_PART-1                                                                    
          FORCE     EQUILIBRIUM NOT ACHIEVED WITHIN TOLERANCE.
 
	SYMMETRIC PURE THREAD-BASED DIRECT SPARSE SOLVER RUNNING ON
 	1 HOST x 1 MPI RANK PER HOST x 10 THREADS PER RANK
        NUMBER OF EQUATIONS:  494706
        NUMBER OF RHS:        1
        NUMBER OF FLOPS:      1.131e+11
        SOLVER ELAPSED TIME:  2.1s

               CONVERGENCE CHECKS FOR EQUILIBRIUM ITERATION     5


 AVERAGE FORCE                      3.866E-02   TIME AVG. FORCE       2.337E-02
 LARGEST SCALED RESIDUAL FORCE      7.950E-06   AT NODE       4298   DOF  1
   INSTANCE: FINAL_PART-1                                                                    
  CORRESPONDING RESIDUAL FORCE      7.950E-06
 LARGEST INCREMENT OF DISP.        -3.275E-03   AT NODE        328   DOF  3
   INSTANCE: FINAL_PART-1                                                                    
 LARGEST CORRECTION TO DISP.       -3.470E-08   AT NODE        328   DOF  3
   INSTANCE: FINAL_PART-1                                                                    
          THE FORCE     EQUILIBRIUM EQUATIONS HAVE CONVERGED

 ITERATION SUMMARY FOR THE INCREMENT:   5 TOTAL ITERATIONS, OF WHICH
   0 ARE SEVERE DISCONTINUITY ITERATIONS AND  5 ARE EQUILIBRIUM ITERATIONS.

 TIME INCREMENT COMPLETED  6.250E-02,  FRACTION OF STEP COMPLETED  0.312    
 STEP TIME COMPLETED       0.312    ,  TOTAL TIME COMPLETED        0.312    


  INCREMENT     6 STARTS. ATTEMPT NUMBER  1, TIME INCREMENT  6.250E-02
 
	SYMMETRIC PURE THREAD-BASED DIRECT SPARSE SOLVER RUNNING ON
 	1 HOST x 1 MPI RANK PER HOST x 10 THREADS PER RANK
        NUMBER OF EQUATIONS:  494706
        NUMBER OF RHS:        1
        NUMBER OF FLOPS:      1.131e+11
        SOLVER ELAPSED TIME:  2.2s

               CONVERGENCE CHECKS FOR EQUILIBRIUM ITERATION     1


 AVERAGE FORCE                      4.738E-02   TIME AVG. FORCE       2.737E-02
 LARGEST SCALED RESIDUAL FORCE      0.829       AT NODE        847   DOF  2
   INSTANCE: FINAL_PART-1                                                                    
  CORRESPONDING RESIDUAL FORCE      0.829    
 LARGEST INCREMENT OF DISP.        -3.167E-03   AT NODE        328   DOF  3
   INSTANCE: FINAL_PART-1                                                                    
 LARGEST CORRECTION TO DISP.       -5.424E-04   AT NODE        229   DOF  2
   INSTANCE: FINAL_PART-1                                                                    
          FORCE     EQUILIBRIUM NOT ACHIEVED WITHIN TOLERANCE.
 
	SYMMETRIC PURE THREAD-BASED DIRECT SPARSE SOLVER RUNNING ON
 	1 HOST x 1 MPI RANK PER HOST x 10 THREADS PER RANK
        NUMBER OF EQUATIONS:  494706
        NUMBER OF RHS:        1
        NUMBER OF FLOPS:      1.131e+11
        SOLVER ELAPSED TIME:  2.1s
 

 ***WARNING: THE SYSTEM MATRIX HAS 2 NEGATIVE EIGENVALUES.
             EXPLANATIONS ARE SUGGESTED AFTER THE FIRST OCCURRENCE OF THIS MESSAGE.

               CONVERGENCE CHECKS FOR EQUILIBRIUM ITERATION     2


 AVERAGE FORCE                      4.619E-02   TIME AVG. FORCE       2.717E-02
 LARGEST SCALED RESIDUAL FORCE      1.173E-02   AT NODE        480   DOF  3
   INSTANCE: FINAL_PART-1                                                                    
  CORRESPONDING RESIDUAL FORCE      1.173E-02
 LARGEST INCREMENT OF DISP.        -3.173E-03   AT NODE        328   DOF  3
   INSTANCE: FINAL_PART-1                                                                    
 LARGEST CORRECTION TO DISP.       -5.882E-06   AT NODE        328   DOF  3
   INSTANCE: FINAL_PART-1                                                                    
          FORCE     EQUILIBRIUM NOT ACHIEVED WITHIN TOLERANCE.
 
	SYMMETRIC PURE THREAD-BASED DIRECT SPARSE SOLVER RUNNING ON
 	1 HOST x 1 MPI RANK PER HOST x 10 THREADS PER RANK
        NUMBER OF EQUATIONS:  494706
        NUMBER OF RHS:        1
        NUMBER OF FLOPS:      1.131e+11
        SOLVER ELAPSED TIME:  2.1s

               CONVERGENCE CHECKS FOR EQUILIBRIUM ITERATION     3


 AVERAGE FORCE                      4.614E-02   TIME AVG. FORCE       2.716E-02
 LARGEST SCALED RESIDUAL FORCE     -2.099E-03   AT NODE        387   DOF  3
   INSTANCE: FINAL_PART-1                                                                    
  CORRESPONDING RESIDUAL FORCE     -2.099E-03
 LARGEST INCREMENT OF DISP.        -3.154E-03   AT NODE        328   DOF  3
   INSTANCE: FINAL_PART-1                                                                    
 LARGEST CORRECTION TO DISP.        1.966E-05   AT NODE        328   DOF  3
   INSTANCE: FINAL_PART-1                                                                    
          FORCE     EQUILIBRIUM NOT ACHIEVED WITHIN TOLERANCE.
 
	SYMMETRIC PURE THREAD-BASED DIRECT SPARSE SOLVER RUNNING ON
 	1 HOST x 1 MPI RANK PER HOST x 10 THREADS PER RANK
        NUMBER OF EQUATIONS:  494706
        NUMBER OF RHS:        1
        NUMBER OF FLOPS:      1.131e+11
        SOLVER ELAPSED TIME:  2.2s

               CONVERGENCE CHECKS FOR EQUILIBRIUM ITERATION     4


 AVERAGE FORCE                      4.614E-02   TIME AVG. FORCE       2.716E-02
 LARGEST SCALED RESIDUAL FORCE      1.189E-04   AT NODE       4298   DOF  3
   INSTANCE: FINAL_PART-1                                                                    
  CORRESPONDING RESIDUAL FORCE      1.189E-04
 LARGEST INCREMENT OF DISP.        -3.153E-03   AT NODE        328   DOF  3
   INSTANCE: FINAL_PART-1                                                                    
 LARGEST CORRECTION TO DISP.       -2.671E-07   AT NODE        315   DOF  3
   INSTANCE: FINAL_PART-1                                                                    
          THE FORCE     EQUILIBRIUM EQUATIONS HAVE CONVERGED

 ITERATION SUMMARY FOR THE INCREMENT:   4 TOTAL ITERATIONS, OF WHICH
   0 ARE SEVERE DISCONTINUITY ITERATIONS AND  4 ARE EQUILIBRIUM ITERATIONS.

 TIME INCREMENT COMPLETED  6.250E-02,  FRACTION OF STEP COMPLETED  0.375    
 STEP TIME COMPLETED       0.375    ,  TOTAL TIME COMPLETED        0.375    


  INCREMENT     7 STARTS. ATTEMPT NUMBER  1, TIME INCREMENT  6.250E-02
 
	SYMMETRIC PURE THREAD-BASED DIRECT SPARSE SOLVER RUNNING ON
 	1 HOST x 1 MPI RANK PER HOST x 10 THREADS PER RANK
        NUMBER OF EQUATIONS:  494706
        NUMBER OF RHS:        1
        NUMBER OF FLOPS:      1.131e+11
        SOLVER ELAPSED TIME:  2.1s

               CONVERGENCE CHECKS FOR EQUILIBRIUM ITERATION     1


 AVERAGE FORCE                      5.520E-02   TIME AVG. FORCE       3.117E-02
 LARGEST SCALED RESIDUAL FORCE       1.09       AT NODE        847   DOF  2
   INSTANCE: FINAL_PART-1                                                                    
  CORRESPONDING RESIDUAL FORCE       1.09    
 LARGEST INCREMENT OF DISP.        -3.242E-03   AT NODE         43   DOF  2
   INSTANCE: FINAL_PART-1                                                                    
 LARGEST CORRECTION TO DISP.       -6.464E-04   AT NODE        229   DOF  2
   INSTANCE: FINAL_PART-1                                                                    
          FORCE     EQUILIBRIUM NOT ACHIEVED WITHIN TOLERANCE.
 
	SYMMETRIC PURE THREAD-BASED DIRECT SPARSE SOLVER RUNNING ON
 	1 HOST x 1 MPI RANK PER HOST x 10 THREADS PER RANK
        NUMBER OF EQUATIONS:  494706
        NUMBER OF RHS:        1
        NUMBER OF FLOPS:      1.131e+11
        SOLVER ELAPSED TIME:  2.2s
 

 ***WARNING: THE SYSTEM MATRIX HAS 2 NEGATIVE EIGENVALUES.
             EXPLANATIONS ARE SUGGESTED AFTER THE FIRST OCCURRENCE OF THIS MESSAGE.

               CONVERGENCE CHECKS FOR EQUILIBRIUM ITERATION     2


 AVERAGE FORCE                      5.394E-02   TIME AVG. FORCE       3.099E-02
 LARGEST SCALED RESIDUAL FORCE      1.671E-02   AT NODE        480   DOF  3
   INSTANCE: FINAL_PART-1                                                                    
  CORRESPONDING RESIDUAL FORCE      1.671E-02
 LARGEST INCREMENT OF DISP.        -3.249E-03   AT NODE         43   DOF  2
   INSTANCE: FINAL_PART-1                                                                    
 LARGEST CORRECTION TO DISP.       -8.269E-06   AT NODE        328   DOF  3
   INSTANCE: FINAL_PART-1                                                                    
          FORCE     EQUILIBRIUM NOT ACHIEVED WITHIN TOLERANCE.
 
	SYMMETRIC PURE THREAD-BASED DIRECT SPARSE SOLVER RUNNING ON
 	1 HOST x 1 MPI RANK PER HOST x 10 THREADS PER RANK
        NUMBER OF EQUATIONS:  494706
        NUMBER OF RHS:        1
        NUMBER OF FLOPS:      1.131e+11
        SOLVER ELAPSED TIME:  2.1s

               CONVERGENCE CHECKS FOR EQUILIBRIUM ITERATION     3


 AVERAGE FORCE                      5.388E-02   TIME AVG. FORCE       3.098E-02
 LARGEST SCALED RESIDUAL FORCE      2.861E-03   AT NODE         12   DOF  1
   INSTANCE: FINAL_PART-1                                                                    
  CORRESPONDING RESIDUAL FORCE      2.861E-03
 LARGEST INCREMENT OF DISP.        -3.223E-03   AT NODE         43   DOF  2
   INSTANCE: FINAL_PART-1                                                                    
 LARGEST CORRECTION TO DISP.        2.579E-05   AT NODE         43   DOF  2
   INSTANCE: FINAL_PART-1                                                                    
          FORCE     EQUILIBRIUM NOT ACHIEVED WITHIN TOLERANCE.
 
	SYMMETRIC PURE THREAD-BASED DIRECT SPARSE SOLVER RUNNING ON
 	1 HOST x 1 MPI RANK PER HOST x 10 THREADS PER RANK
        NUMBER OF EQUATIONS:  494706
        NUMBER OF RHS:        1
        NUMBER OF FLOPS:      1.131e+11
        SOLVER ELAPSED TIME:  2.2s

               CONVERGENCE CHECKS FOR EQUILIBRIUM ITERATION     4


 AVERAGE FORCE                      5.388E-02   TIME AVG. FORCE       3.098E-02
 LARGEST SCALED RESIDUAL FORCE     -1.765E-04   AT NODE         12   DOF  2
   INSTANCE: FINAL_PART-1                                                                    
  CORRESPONDING RESIDUAL FORCE     -1.765E-04
 LARGEST INCREMENT OF DISP.        -3.223E-03   AT NODE         43   DOF  2
   INSTANCE: FINAL_PART-1                                                                    
 LARGEST CORRECTION TO DISP.        3.674E-07   AT NODE         43   DOF  2
   INSTANCE: FINAL_PART-1                                                                    
          FORCE     EQUILIBRIUM NOT ACHIEVED WITHIN TOLERANCE.
 
	SYMMETRIC PURE THREAD-BASED DIRECT SPARSE SOLVER RUNNING ON
 	1 HOST x 1 MPI RANK PER HOST x 10 THREADS PER RANK
        NUMBER OF EQUATIONS:  494706
        NUMBER OF RHS:        1
        NUMBER OF FLOPS:      1.131e+11
        SOLVER ELAPSED TIME:  2.1s

               CONVERGENCE CHECKS FOR EQUILIBRIUM ITERATION     5


 AVERAGE FORCE                      5.388E-02   TIME AVG. FORCE       3.098E-02
 LARGEST SCALED RESIDUAL FORCE     -1.011E-05   AT NODE         12   DOF  1
   INSTANCE: FINAL_PART-1                                                                    
  CORRESPONDING RESIDUAL FORCE     -1.011E-05
 LARGEST INCREMENT OF DISP.        -3.223E-03   AT NODE         43   DOF  2
   INSTANCE: FINAL_PART-1                                                                    
 LARGEST CORRECTION TO DISP.       -3.030E-08   AT NODE         43   DOF  2
   INSTANCE: FINAL_PART-1                                                                    
          THE FORCE     EQUILIBRIUM EQUATIONS HAVE CONVERGED

 ITERATION SUMMARY FOR THE INCREMENT:   5 TOTAL ITERATIONS, OF WHICH
   0 ARE SEVERE DISCONTINUITY ITERATIONS AND  5 ARE EQUILIBRIUM ITERATIONS.

 TIME INCREMENT COMPLETED  6.250E-02,  FRACTION OF STEP COMPLETED  0.438    
 STEP TIME COMPLETED       0.438    ,  TOTAL TIME COMPLETED        0.438    


  INCREMENT     8 STARTS. ATTEMPT NUMBER  1, TIME INCREMENT  6.250E-02
 
	SYMMETRIC PURE THREAD-BASED DIRECT SPARSE SOLVER RUNNING ON
 	1 HOST x 1 MPI RANK PER HOST x 10 THREADS PER RANK
        NUMBER OF EQUATIONS:  494706
        NUMBER OF RHS:        1
        NUMBER OF FLOPS:      1.131e+11
        SOLVER ELAPSED TIME:  2.1s

               CONVERGENCE CHECKS FOR EQUILIBRIUM ITERATION     1


 AVERAGE FORCE                      6.386E-02   TIME AVG. FORCE       3.509E-02
 LARGEST SCALED RESIDUAL FORCE       1.53       AT NODE        847   DOF  2
   INSTANCE: FINAL_PART-1                                                                    
  CORRESPONDING RESIDUAL FORCE       1.53    
 LARGEST INCREMENT OF DISP.        -3.994E-03   AT NODE         43   DOF  2
   INSTANCE: FINAL_PART-1                                                                    
 LARGEST CORRECTION TO DISP.       -7.956E-04   AT NODE        229   DOF  2
   INSTANCE: FINAL_PART-1                                                                    
          FORCE     EQUILIBRIUM NOT ACHIEVED WITHIN TOLERANCE.
 
	SYMMETRIC PURE THREAD-BASED DIRECT SPARSE SOLVER RUNNING ON
 	1 HOST x 1 MPI RANK PER HOST x 10 THREADS PER RANK
        NUMBER OF EQUATIONS:  494706
        NUMBER OF RHS:        1
        NUMBER OF FLOPS:      1.131e+11
        SOLVER ELAPSED TIME:  2.1s
 

 ***WARNING: THE SYSTEM MATRIX HAS 1 NEGATIVE EIGENVALUES.
             EXPLANATIONS ARE SUGGESTED AFTER THE FIRST OCCURRENCE OF THIS MESSAGE.

               CONVERGENCE CHECKS FOR EQUILIBRIUM ITERATION     2


 AVERAGE FORCE                      6.168E-02   TIME AVG. FORCE       3.482E-02
 LARGEST SCALED RESIDUAL FORCE     -4.258E-02   AT NODE       2763   DOF  3
   INSTANCE: FINAL_PART-1                                                                    
  CORRESPONDING RESIDUAL FORCE     -4.258E-02
 LARGEST INCREMENT OF DISP.        -3.925E-03   AT NODE         43   DOF  2
   INSTANCE: FINAL_PART-1                                                                    
 LARGEST CORRECTION TO DISP.        6.914E-05   AT NODE         43   DOF  2
   INSTANCE: FINAL_PART-1                                                                    
          FORCE     EQUILIBRIUM NOT ACHIEVED WITHIN TOLERANCE.
 
	SYMMETRIC PURE THREAD-BASED DIRECT SPARSE SOLVER RUNNING ON
 	1 HOST x 1 MPI RANK PER HOST x 10 THREADS PER RANK
        NUMBER OF EQUATIONS:  494706
        NUMBER OF RHS:        1
        NUMBER OF FLOPS:      1.131e+11
        SOLVER ELAPSED TIME:  2.1s

               CONVERGENCE CHECKS FOR EQUILIBRIUM ITERATION     3


 AVERAGE FORCE                      6.195E-02   TIME AVG. FORCE       3.485E-02
 LARGEST SCALED RESIDUAL FORCE     -3.797E-02   AT NODE       2763   DOF  3
   INSTANCE: FINAL_PART-1                                                                    
  CORRESPONDING RESIDUAL FORCE     -3.797E-02
 LARGEST INCREMENT OF DISP.        -3.957E-03   AT NODE         43   DOF  2
   INSTANCE: FINAL_PART-1                                                                    
 LARGEST CORRECTION TO DISP.        3.431E-05   AT NODE        315   DOF  3
   INSTANCE: FINAL_PART-1                                                                    
          FORCE     EQUILIBRIUM NOT ACHIEVED WITHIN TOLERANCE.
 
	SYMMETRIC PURE THREAD-BASED DIRECT SPARSE SOLVER RUNNING ON
 	1 HOST x 1 MPI RANK PER HOST x 10 THREADS PER RANK
        NUMBER OF EQUATIONS:  494706
        NUMBER OF RHS:        1
        NUMBER OF FLOPS:      1.131e+11
        SOLVER ELAPSED TIME:  2.1s

               CONVERGENCE CHECKS FOR EQUILIBRIUM ITERATION     4


 AVERAGE FORCE                      6.197E-02   TIME AVG. FORCE       3.485E-02
 LARGEST SCALED RESIDUAL FORCE     -1.240E-03   AT NODE         12   DOF  1
   INSTANCE: FINAL_PART-1                                                                    
  CORRESPONDING RESIDUAL FORCE     -1.240E-03
 LARGEST INCREMENT OF DISP.        -3.969E-03   AT NODE         43   DOF  2
   INSTANCE: FINAL_PART-1                                                                    
 LARGEST CORRECTION TO DISP.       -1.216E-05   AT NODE         43   DOF  2
   INSTANCE: FINAL_PART-1                                                                    
          FORCE     EQUILIBRIUM NOT ACHIEVED WITHIN TOLERANCE.
 
	SYMMETRIC PURE THREAD-BASED DIRECT SPARSE SOLVER RUNNING ON
 	1 HOST x 1 MPI RANK PER HOST x 10 THREADS PER RANK
        NUMBER OF EQUATIONS:  494706
        NUMBER OF RHS:        1
        NUMBER OF FLOPS:      1.131e+11
        SOLVER ELAPSED TIME:  2.1s

               CONVERGENCE CHECKS FOR EQUILIBRIUM ITERATION     5


 AVERAGE FORCE                      6.197E-02   TIME AVG. FORCE       3.485E-02
 LARGEST SCALED RESIDUAL FORCE      1.593E-04   AT NODE         12   DOF  2
   INSTANCE: FINAL_PART-1                                                                    
  CORRESPONDING RESIDUAL FORCE      1.593E-04
 LARGEST INCREMENT OF DISP.        -3.970E-03   AT NODE         43   DOF  2
   INSTANCE: FINAL_PART-1                                                                    
 LARGEST CORRECTION TO DISP.       -9.647E-07   AT NODE         43   DOF  2
   INSTANCE: FINAL_PART-1                                                                    
          THE FORCE     EQUILIBRIUM EQUATIONS HAVE CONVERGED

 ITERATION SUMMARY FOR THE INCREMENT:   5 TOTAL ITERATIONS, OF WHICH
   0 ARE SEVERE DISCONTINUITY ITERATIONS AND  5 ARE EQUILIBRIUM ITERATIONS.

 TIME INCREMENT COMPLETED  6.250E-02,  FRACTION OF STEP COMPLETED  0.500    
 STEP TIME COMPLETED       0.500    ,  TOTAL TIME COMPLETED        0.500    


  INCREMENT     9 STARTS. ATTEMPT NUMBER  1, TIME INCREMENT  6.250E-02
 
	SYMMETRIC PURE THREAD-BASED DIRECT SPARSE SOLVER RUNNING ON
 	1 HOST x 1 MPI RANK PER HOST x 10 THREADS PER RANK
        NUMBER OF EQUATIONS:  494706
        NUMBER OF RHS:        1
        NUMBER OF FLOPS:      1.131e+11
        SOLVER ELAPSED TIME:  2.1s

 ***ERROR: Process terminated by external request (SIGTERM or SIGINT received).



     ANALYSIS SUMMARY:
     TOTAL OF          9  INCREMENTS
                       2  CUTBACKS IN AUTOMATIC INCREMENTATION
                      48  ITERATIONS INCLUDING CONTACT ITERATIONS IF PRESENT
                      48  PASSES THROUGH THE EQUATION SOLVER OF WHICH 
                      48  INVOLVE MATRIX DECOMPOSITION, INCLUDING
                       0  DECOMPOSITION(S) OF THE MASS MATRIX
                       1  REORDERING OF EQUATIONS TO MINIMIZE WAVEFRONT
                       0  ADDITIONAL RESIDUAL EVALUATIONS FOR LINE SEARCHES
                       0  ADDITIONAL OPERATOR EVALUATIONS FOR LINE SEARCHES
                       1  WARNING MESSAGES DURING USER INPUT PROCESSING
                  493307  WARNING MESSAGES DURING ANALYSIS
                  493292  ANALYSIS WARNINGS ARE NUMERICAL PROBLEM MESSAGES
                      11  ANALYSIS WARNINGS ARE NEGATIVE EIGENVALUE MESSAGES
                       1  ERROR MESSAGES



     JOB TIME SUMMARY
       USER TIME (SEC)      =     1.74E+04
       SYSTEM TIME (SEC)    =     3.20E+02
       TOTAL CPU TIME (SEC) =     1.78E+04
       WALLCLOCK TIME (SEC) =         2173
       MEMORY PEAK (GB)     =            0
