 Abaqus/Standard 2025                  DATE 25-Feb-2026 TIME 12:05:02
 SUMMARY OF JOB INFORMATION:
 STEP  INC ATT SEVERE EQUIL TOTAL  TOTAL      STEP       INC OF       DOF    IF
               DISCON ITERS ITERS  TIME/    TIME/LPF    TIME/LPF    MONITOR RIKS
               ITERS               FREQ
   1     1   1U    0     2     2  0.00       0.00       1.000     
   1     1   2U    0     3     3  0.00       0.00       0.2500    
   1     1   3     0     9     9  0.0625     0.0625     0.06250   
   1     2   1     0     5     5  0.125      0.125      0.06250   
   1     3   1     0     5     5  0.188      0.188      0.06250   
   1     4   1     0     5     5  0.250      0.250      0.06250   
   1     5   1     0     5     5  0.312      0.312      0.06250   
   1     6   1     0     5     5  0.375      0.375      0.06250   
   1     7   1     0     5     5  0.438      0.438      0.06250   
   1     8   1     0     6     6  0.500      0.500      0.06250   
   1     9   1     0     7     7  0.562      0.562      0.06250   
   1    10   1     0     8     8  0.625      0.625      0.06250   
   1    11   1     0     9     9  0.688      0.688      0.06250   
   1    12   1U    0     5     5  0.688      0.688      0.06250   
   1    12   2     0     4     4  0.703      0.703      0.01562   
   1    13   1     0     4     4  0.719      0.719      0.01562   
   1    14   1     0     6     6  0.742      0.742      0.02344   
   1    15   1     0     8     8  0.766      0.766      0.02344   
   1    16   1     0     9     9  0.789      0.789      0.02344   
   1    17   1     0    10    10  0.812      0.812      0.02344   
   1    18   1     0    10    10  0.836      0.836      0.02344   
   1    19   1U    0     7     7  0.836      0.836      0.02344   
   1    19   2     0     4     4  0.842      0.842      0.005859  
   1    20   1     0     4     4  0.848      0.848      0.005859  
   1    21   1     0     5     5  0.856      0.856      0.008789  
   1    22   1     0     5     5  0.865      0.865      0.008789  
   1    23   1     0     6     6  0.874      0.874      0.008789  
   1    24   1     0     6     6  0.883      0.883      0.008789  
   1    25   1     0     6     6  0.892      0.892      0.008789  
   1    26   1     0     6     6  0.900      0.900      0.008789  
   1    27   1     0     6     6  0.909      0.909      0.008789  
   1    28   1     0     6     6  0.918      0.918      0.008789  
   1    29   1     0     6     6  0.927      0.927      0.008789  
   1    30   1     0     6     6  0.936      0.936      0.008789  
   1    31   1     0     6     6  0.944      0.944      0.008789  
   1    32   1     0     6     6  0.953      0.953      0.008789  
   1    33   1     0     6     6  0.962      0.962      0.008789  
   1    34   1     0     6     6  0.971      0.971      0.008789  
   1    35   1     0     6     6  0.979      0.979      0.008789  
   1    36   1     0     6     6  0.988      0.988      0.008789  
   1    37   1     0     6     6  0.997      0.997      0.008789  
   1    38   1     0     4     4  1.00       1.00       0.002930  
                          
 THE ANALYSIS HAS COMPLETED SUCCESSFULLY
