1

   Abaqus 2025                                  Date 25-Feb-2026   Time 13:23:25
   For use by UNIVERSITAET STUTTGART under license from Dassault Systemes or its subsidiary.

                                                                                 
                                                                                 
 STEP    1     INCREMENT     1     STEP TIME    0.00    


                        S T E P       1     S T A T I C   A N A L Y S I S


                                                                                          

     AUTOMATIC TIME CONTROL WITH -
          A SUGGESTED INITIAL TIME INCREMENT OF                 1.00    
          AND A TOTAL TIME PERIOD OF                            1.00    
          THE MINIMUM TIME INCREMENT ALLOWED IS                1.000E-05
          THE MAXIMUM TIME INCREMENT ALLOWED IS                 1.00    

     LINEAR EQUATION SOLVER TYPE         DIRECT SPARSE

 CONVERGENCE TOLERANCE PARAMETERS FOR FORCE    
     CRITERION FOR RESIDUAL FORCE     FOR A NONLINEAR PROBLEM          5.000E-03
     CRITERION FOR DISP.    CORRECTION IN A NONLINEAR PROBLEM          1.000E-02
     INITIAL VALUE OF TIME AVERAGE FORCE                               1.000E-02
     AVERAGE FORCE     IS TIME AVERAGE FORCE    
     ALTERNATE CRIT. FOR RESIDUAL FORCE     FOR A NONLINEAR PROBLEM    2.000E-02
     CRITERION FOR ZERO FORCE     RELATIVE TO TIME AVRG. FORCE         1.000E-05
     CRITERION FOR RESIDUAL FORCE     WHEN THERE IS ZERO FLUX          1.000E-05
     CRITERION FOR DISP.    CORRECTION WHEN THERE IS ZERO FLUX         1.000E-03
     CRITERION FOR RESIDUAL FORCE     FOR A LINEAR INCREMENT           1.000E-08
     FIELD CONVERSION RATIO                                             1.00    
     CRITERION FOR ZERO FORCE     REL. TO TIME AVRG. MAX. FORCE        1.000E-05
     CRITERION FOR ZERO DISP.    RELATIVE TO CHARACTERISTIC LENGTH     1.000E-08

     VOLUMETRIC STRAIN COMPATIBILITY TOLERANCE FOR HYBRID SOLIDS       1.000E-05
     AXIAL STRAIN COMPATIBILITY TOLERANCE FOR HYBRID BEAMS             1.000E-05
     TRANS. SHEAR STRAIN COMPATIBILITY TOLERANCE FOR HYBRID BEAMS      1.000E-05
     SOFT CONTACT CONSTRAINT COMPATIBILITY TOLERANCE FOR P>P0          5.000E-03
     SOFT CONTACT CONSTRAINT COMPATIBILITY TOLERANCE FOR P=0.0         0.100    
     CONTACT FORCE ERROR TOLERANCE FOR CONVERT SDI=YES                 1.00    
     DISPLACEMENT COMPATIBILITY TOLERANCE FOR DCOUP ELEMENTS           1.000E-05
     ROTATION COMPATIBILITY TOLERANCE FOR DCOUP ELEMENTS               1.000E-05

 EQUILIBRIUM WILL BE CHECKED FOR SEVERE DISCONTINUITY ITERATIONS

 TIME INCREMENTATION CONTROL PARAMETERS:
     FIRST EQUILIBRIUM ITERATION FOR CONSECUTIVE DIVERGENCE CHECK              4
     EQUILIBRIUM ITERATION AT WHICH LOG. CONVERGENCE RATE CHECK BEGINS         8
     EQUILIBRIUM ITERATION AFTER WHICH ALTERNATE RESIDUAL IS USED              9
     MAXIMUM EQUILIBRIUM ITERATIONS ALLOWED                                   16
     EQUILIBRIUM ITERATION COUNT FOR CUT-BACK IN NEXT INCREMENT               10
     MAXIMUM EQUILIB. ITERS IN TWO INCREMENTS FOR TIME INCREMENT INCREASE      4
     MAXIMUM ITERATIONS FOR SEVERE DISCONTINUITIES                            50
     MAXIMUM ATTEMPTS ALLOWED IN AN INCREMENT                                  5
     MAXIMUM DISCON. ITERS IN TWO INCREMENTS FOR TIME INCREMENT INCREASE      50
     MAXIMUM CONTACT AUGMENTATIONS FOR *SURFACE BEHAVIOR,AUGMENTED LAGRANGE   50
     CUT-BACK FACTOR AFTER DIVERGENCE                                 0.2500    
     CUT-BACK FACTOR FOR TOO SLOW CONVERGENCE                         0.5000    
     CUT-BACK FACTOR AFTER TOO MANY EQUILIBRIUM ITERATIONS            0.7500    
     CUT-BACK FACTOR AFTER TOO MANY SEVERE DISCONTINUITY ITERATIONS   0.2500    
     CUT-BACK FACTOR AFTER PROBLEMS IN ELEMENT ASSEMBLY               0.2500    
     INCREASE FACTOR AFTER TWO INCREMENTS THAT CONVERGE QUICKLY        1.500    
     MAX. TIME INCREMENT INCREASE FACTOR ALLOWED                       1.500    
     MAX. TIME INCREMENT INCREASE FACTOR ALLOWED (DYNAMICS)            1.250    
     MAX. TIME INCREMENT INCREASE FACTOR ALLOWED (DIFFUSION)           2.000    
     MINIMUM TIME INCREMENT RATIO FOR EXTRAPOLATION TO OCCUR          0.1000    
     MAX. RATIO OF TIME INCREMENT TO STABILITY LIMIT                   1.000    
     FRACTION OF STABILITY LIMIT FOR NEW TIME INCREMENT               0.9500    
     TIME INCREMENT INCREASE FACTOR BEFORE A TIME POINT                1.000    
     GLOBAL STABILIZATION CONTROL IS NOT USED

          PRINT OF INCREMENT NUMBER, TIME, ETC., EVERY    1  INCREMENTS

     THE MAXIMUM NUMBER OF INCREMENTS IN THIS STEP IS                     100

          LARGE DISPLACEMENT THEORY WILL BE USED

     LINEAR EXTRAPOLATION WILL BE USED

     CHARACTERISTIC ELEMENT LENGTH     4.346E-04

     DETAILS REGARDING ACTUAL SOLUTION WAVEFRONT REQUESTED

     DETAILED OUTPUT OF DIAGNOSTICS TO DATABASE REQUESTED

     PRINT OF INCREMENT NUMBER, TIME, ETC., TO THE MESSAGE FILE EVERY     1  INCREMENTS

     ELEMENT OPERATIONS WILL BE CARRIED OUT IN PARALLEL USING  10 THREADS ON 1 DOMAIN

     PARALLEL CONTACT TRACKING ENABLED


     COLLECTING MODEL CONSTRAINT INFORMATION FOR OVERCONSTRAINT CHECKS

     COLLECTING STEP CONSTRAINT INFORMATION FOR OVERCONSTRAINT CHECKS


  INCREMENT     1 STARTS. ATTEMPT NUMBER  1, TIME INCREMENT   1.00    
 
     INITIAL ELEMENT LOAD BALANCE
            DOMAIN    1     THREAD    NUMBER OF ELEMENTS
                              1            12800
                              2            11776
                              3            13267
                              4            12288
                              5            11776
                              6            13056
                              7            12800
                              8            13824
                              9            13312
                             10            13568
 
	SYMMETRIC PURE THREAD-BASED DIRECT SPARSE SOLVER RUNNING ON
 	1 HOST x 1 MPI RANK PER HOST x 10 THREADS PER RANK
        NUMBER OF EQUATIONS:  494706
        NUMBER OF RHS:        1
        NUMBER OF FLOPS:      1.131e+11
        SOLVER ELAPSED TIME:  529ms

               CONVERGENCE CHECKS FOR EQUILIBRIUM ITERATION     1


 AVERAGE FORCE                       685.       TIME AVG. FORCE        685.    
 LARGEST SCALED RESIDUAL FORCE      3.811E+04   AT NODE       3890   DOF  1
   INSTANCE: FINAL_PART-1                                                                    
  CORRESPONDING RESIDUAL FORCE      3.811E+04
 LARGEST INCREMENT OF DISP.        -0.116       AT NODE      10604   DOF  3
   INSTANCE: FINAL_PART-1                                                                    
 LARGEST CORRECTION TO DISP.       -0.116       AT NODE      10604   DOF  3
   INSTANCE: FINAL_PART-1                                                                    
          FORCE     EQUILIBRIUM NOT ACHIEVED WITHIN TOLERANCE.
 
	SYMMETRIC PURE THREAD-BASED DIRECT SPARSE SOLVER RUNNING ON
 	1 HOST x 1 MPI RANK PER HOST x 10 THREADS PER RANK
        NUMBER OF EQUATIONS:  494706
        NUMBER OF RHS:        1
        NUMBER OF FLOPS:      1.131e+11
        SOLVER ELAPSED TIME:  500ms
 

 ***WARNING: THE SYSTEM MATRIX HAS 205253 NEGATIVE EIGENVALUES.

     NEGATIVE EIGENVALUES MEAN THAT THE SYSTEM MATRIX IS NOT 
     POSITIVE DEFINITE:
     FOR EXAMPLE, A BIFURCATION (BUCKLING) LOAD MAY HAVE BEEN EXCEEDED.
   ELEMENT FINAL_PART-1.515 IS DISTORTING EXCESSIVELY.
   ELEMENT FINAL_PART-1.516 IS DISTORTING EXCESSIVELY.
   ELEMENT FINAL_PART-1.518 IS DISTORTING EXCESSIVELY.
   ELEMENT FINAL_PART-1.519 IS DISTORTING EXCESSIVELY.
   ELEMENT FINAL_PART-1.520 IS DISTORTING EXCESSIVELY.
   ELEMENT FINAL_PART-1.521 IS DISTORTING EXCESSIVELY.
   ELEMENT FINAL_PART-1.522 IS DISTORTING EXCESSIVELY.
   ELEMENT FINAL_PART-1.524 IS DISTORTING EXCESSIVELY.
   ELEMENT FINAL_PART-1.526 IS DISTORTING EXCESSIVELY.
   ELEMENT FINAL_PART-1.527 IS DISTORTING EXCESSIVELY.
   ELEMENT FINAL_PART-1.529 IS DISTORTING EXCESSIVELY.
   ELEMENT FINAL_PART-1.532 IS DISTORTING EXCESSIVELY.
   ELEMENT FINAL_PART-1.533 IS DISTORTING EXCESSIVELY.
   ELEMENT FINAL_PART-1.534 IS DISTORTING EXCESSIVELY.
   ELEMENT FINAL_PART-1.536 IS DISTORTING EXCESSIVELY.
   ELEMENT FINAL_PART-1.538 IS DISTORTING EXCESSIVELY.
   ELEMENT FINAL_PART-1.541 IS DISTORTING EXCESSIVELY.
   ELEMENT FINAL_PART-1.543 IS DISTORTING EXCESSIVELY.
   ELEMENT FINAL_PART-1.545 IS DISTORTING EXCESSIVELY.
   ELEMENT FINAL_PART-1.547 IS DISTORTING EXCESSIVELY.
   ELEMENT FINAL_PART-1.548 IS DISTORTING EXCESSIVELY.
   ELEMENT FINAL_PART-1.550 IS DISTORTING EXCESSIVELY.
   ELEMENT FINAL_PART-1.551 IS DISTORTING EXCESSIVELY.
   ELEMENT FINAL_PART-1.554 IS DISTORTING EXCESSIVELY.
   ELEMENT FINAL_PART-1.558 IS DISTORTING EXCESSIVELY.
   ELEMENT FINAL_PART-1.559 IS DISTORTING EXCESSIVELY.
   ELEMENT FINAL_PART-1.561 IS DISTORTING EXCESSIVELY.
   ELEMENT FINAL_PART-1.564 IS DISTORTING EXCESSIVELY.
   ELEMENT FINAL_PART-1.566 IS DISTORTING EXCESSIVELY.
   ELEMENT FINAL_PART-1.569 IS DISTORTING EXCESSIVELY.
   ELEMENT FINAL_PART-1.570 IS DISTORTING EXCESSIVELY.
   ELEMENT FINAL_PART-1.574 IS DISTORTING EXCESSIVELY.
   ELEMENT FINAL_PART-1.575 IS DISTORTING EXCESSIVELY.
   ELEMENT FINAL_PART-1.576 IS DISTORTING EXCESSIVELY.
   ELEMENT FINAL_PART-1.578 IS DISTORTING EXCESSIVELY.
   ELEMENT FINAL_PART-1.580 IS DISTORTING EXCESSIVELY.
   ELEMENT FINAL_PART-1.582 IS DISTORTING EXCESSIVELY.
   ELEMENT FINAL_PART-1.584 IS DISTORTING EXCESSIVELY.
   ELEMENT FINAL_PART-1.587 IS DISTORTING EXCESSIVELY.
   ELEMENT FINAL_PART-1.590 IS DISTORTING EXCESSIVELY.
   ELEMENT FINAL_PART-1.594 IS DISTORTING EXCESSIVELY.
   ELEMENT FINAL_PART-1.595 IS DISTORTING EXCESSIVELY.
   ELEMENT FINAL_PART-1.598 IS DISTORTING EXCESSIVELY.
   ELEMENT FINAL_PART-1.599 IS DISTORTING EXCESSIVELY.
   ELEMENT FINAL_PART-1.604 IS DISTORTING EXCESSIVELY.
   ELEMENT FINAL_PART-1.607 IS DISTORTING EXCESSIVELY.
   ELEMENT FINAL_PART-1.608 IS DISTORTING EXCESSIVELY.
   ELEMENT FINAL_PART-1.610 IS DISTORTING EXCESSIVELY.
   ELEMENT FINAL_PART-1.614 IS DISTORTING EXCESSIVELY.
   ELEMENT FINAL_PART-1.617 IS DISTORTING EXCESSIVELY.
   ELEMENT FINAL_PART-1.620 IS DISTORTING EXCESSIVELY.
   ELEMENT FINAL_PART-1.621 IS DISTORTING EXCESSIVELY.
   ELEMENT FINAL_PART-1.622 IS DISTORTING EXCESSIVELY.
   ELEMENT FINAL_PART-1.623 IS DISTORTING EXCESSIVELY.
   ELEMENT FINAL_PART-1.624 IS DISTORTING EXCESSIVELY.
   ELEMENT FINAL_PART-1.629 IS DISTORTING EXCESSIVELY.
   ELEMENT FINAL_PART-1.630 IS DISTORTING EXCESSIVELY.
   ELEMENT FINAL_PART-1.631 IS DISTORTING EXCESSIVELY.
   ELEMENT FINAL_PART-1.633 IS DISTORTING EXCESSIVELY.
   ELEMENT FINAL_PART-1.634 IS DISTORTING EXCESSIVELY.
   ELEMENT FINAL_PART-1.635 IS DISTORTING EXCESSIVELY.
   ELEMENT FINAL_PART-1.638 IS DISTORTING EXCESSIVELY.
   ELEMENT FINAL_PART-1.639 IS DISTORTING EXCESSIVELY.
   ELEMENT FINAL_PART-1.643 IS DISTORTING EXCESSIVELY.
   ELEMENT FINAL_PART-1.644 IS DISTORTING EXCESSIVELY.
   ELEMENT FINAL_PART-1.646 IS DISTORTING EXCESSIVELY.
   ELEMENT FINAL_PART-1.648 IS DISTORTING EXCESSIVELY.
   ELEMENT FINAL_PART-1.649 IS DISTORTING EXCESSIVELY.
   ELEMENT FINAL_PART-1.650 IS DISTORTING EXCESSIVELY.
   ELEMENT FINAL_PART-1.652 IS DISTORTING EXCESSIVELY.
   ELEMENT FINAL_PART-1.653 IS DISTORTING EXCESSIVELY.
   ELEMENT FINAL_PART-1.657 IS DISTORTING EXCESSIVELY.
   ELEMENT FINAL_PART-1.658 IS DISTORTING EXCESSIVELY.
   ELEMENT FINAL_PART-1.659 IS DISTORTING EXCESSIVELY.
   ELEMENT FINAL_PART-1.660 IS DISTORTING EXCESSIVELY.
   ELEMENT FINAL_PART-1.661 IS DISTORTING EXCESSIVELY.
   ELEMENT FINAL_PART-1.662 IS DISTORTING EXCESSIVELY.
   ELEMENT FINAL_PART-1.664 IS DISTORTING EXCESSIVELY.
   ELEMENT FINAL_PART-1.666 IS DISTORTING EXCESSIVELY.
   ELEMENT FINAL_PART-1.667 IS DISTORTING EXCESSIVELY.
   ELEMENT FINAL_PART-1.668 IS DISTORTING EXCESSIVELY.
   ELEMENT FINAL_PART-1.669 IS DISTORTING EXCESSIVELY.
   ELEMENT FINAL_PART-1.670 IS DISTORTING EXCESSIVELY.
   ELEMENT FINAL_PART-1.671 IS DISTORTING EXCESSIVELY.
   ELEMENT FINAL_PART-1.672 IS DISTORTING EXCESSIVELY.
   ELEMENT FINAL_PART-1.680 IS DISTORTING EXCESSIVELY.
   ELEMENT FINAL_PART-1.681 IS DISTORTING EXCESSIVELY.
   ELEMENT FINAL_PART-1.682 IS DISTORTING EXCESSIVELY.
   ELEMENT FINAL_PART-1.683 IS DISTORTING EXCESSIVELY.
   ELEMENT FINAL_PART-1.686 IS DISTORTING EXCESSIVELY.
   ELEMENT FINAL_PART-1.687 IS DISTORTING EXCESSIVELY.
   ELEMENT FINAL_PART-1.688 IS DISTORTING EXCESSIVELY.
   ELEMENT FINAL_PART-1.696 IS DISTORTING EXCESSIVELY.
   ELEMENT FINAL_PART-1.697 IS DISTORTING EXCESSIVELY.
   ELEMENT FINAL_PART-1.698 IS DISTORTING EXCESSIVELY.
   ELEMENT FINAL_PART-1.700 IS DISTORTING EXCESSIVELY.
   ELEMENT FINAL_PART-1.701 IS DISTORTING EXCESSIVELY.
   ELEMENT FINAL_PART-1.703 IS DISTORTING EXCESSIVELY.
   ELEMENT FINAL_PART-1.706 IS DISTORTING EXCESSIVELY.
   ELEMENT FINAL_PART-1.707 IS DISTORTING EXCESSIVELY.
   ELEMENT FINAL_PART-1.709 IS DISTORTING EXCESSIVELY.
   ELEMENT FINAL_PART-1.710 IS DISTORTING EXCESSIVELY.
   ELEMENT FINAL_PART-1.711 IS DISTORTING EXCESSIVELY.
   ELEMENT FINAL_PART-1.712 IS DISTORTING EXCESSIVELY.
   ELEMENT FINAL_PART-1.715 IS DISTORTING EXCESSIVELY.
   ELEMENT FINAL_PART-1.719 IS DISTORTING EXCESSIVELY.
   ELEMENT FINAL_PART-1.720 IS DISTORTING EXCESSIVELY.
   ELEMENT FINAL_PART-1.723 IS DISTORTING EXCESSIVELY.
   ELEMENT FINAL_PART-1.724 IS DISTORTING EXCESSIVELY.
   ELEMENT FINAL_PART-1.725 IS DISTORTING EXCESSIVELY.
   ELEMENT FINAL_PART-1.726 IS DISTORTING EXCESSIVELY.
   ELEMENT FINAL_PART-1.728 IS DISTORTING EXCESSIVELY.
   ELEMENT FINAL_PART-1.729 IS DISTORTING EXCESSIVELY.
   ELEMENT FINAL_PART-1.733 IS DISTORTING EXCESSIVELY.
   ELEMENT FINAL_PART-1.735 IS DISTORTING EXCESSIVELY.
   ELEMENT FINAL_PART-1.737 IS DISTORTING EXCESSIVELY.
   ELEMENT FINAL_PART-1.738 IS DISTORTING EXCESSIVELY.
   ELEMENT FINAL_PART-1.739 IS DISTORTING EXCESSIVELY.
   ELEMENT FINAL_PART-1.742 IS DISTORTING EXCESSIVELY.
   ELEMENT FINAL_PART-1.748 IS DISTORTING EXCESSIVELY.
   ELEMENT FINAL_PART-1.750 IS DISTORTING EXCESSIVELY.
   ELEMENT FINAL_PART-1.752 IS DISTORTING EXCESSIVELY.
   ELEMENT FINAL_PART-1.754 IS DISTORTING EXCESSIVELY.
   ELEMENT FINAL_PART-1.756 IS DISTORTING EXCESSIVELY.
   ELEMENT FINAL_PART-1.758 IS DISTORTING EXCESSIVELY.
   ELEMENT FINAL_PART-1.760 IS DISTORTING EXCESSIVELY.
   ELEMENT FINAL_PART-1.766 IS DISTORTING EXCESSIVELY.
   ELEMENT FINAL_PART-1.51969 IS DISTORTING EXCESSIVELY.
   ELEMENT FINAL_PART-1.51970 IS DISTORTING EXCESSIVELY.
   ELEMENT FINAL_PART-1.51972 IS DISTORTING EXCESSIVELY.
   ELEMENT FINAL_PART-1.51974 IS DISTORTING EXCESSIVELY.
   ELEMENT FINAL_PART-1.51976 IS DISTORTING EXCESSIVELY.
   ELEMENT FINAL_PART-1.51977 IS DISTORTING EXCESSIVELY.
   ELEMENT FINAL_PART-1.51978 IS DISTORTING EXCESSIVELY.
   ELEMENT FINAL_PART-1.51980 IS DISTORTING EXCESSIVELY.
   ELEMENT FINAL_PART-1.51981 IS DISTORTING EXCESSIVELY.
   ELEMENT FINAL_PART-1.51986 IS DISTORTING EXCESSIVELY.
   ELEMENT FINAL_PART-1.51988 IS DISTORTING EXCESSIVELY.
   ELEMENT FINAL_PART-1.51990 IS DISTORTING EXCESSIVELY.
   ELEMENT FINAL_PART-1.51992 IS DISTORTING EXCESSIVELY.
   ELEMENT FINAL_PART-1.51993 IS DISTORTING EXCESSIVELY.
   ELEMENT FINAL_PART-1.51999 IS DISTORTING EXCESSIVELY.
   ELEMENT FINAL_PART-1.52000 IS DISTORTING EXCESSIVELY.
   ELEMENT FINAL_PART-1.52002 IS DISTORTING EXCESSIVELY.
   ELEMENT FINAL_PART-1.52003 IS DISTORTING EXCESSIVELY.
   ELEMENT FINAL_PART-1.52004 IS DISTORTING EXCESSIVELY.
   ELEMENT FINAL_PART-1.52009 IS DISTORTING EXCESSIVELY.
   ELEMENT FINAL_PART-1.52010 IS DISTORTING EXCESSIVELY.
   ELEMENT FINAL_PART-1.52011 IS DISTORTING EXCESSIVELY.
   ELEMENT FINAL_PART-1.52013 IS DISTORTING EXCESSIVELY.
   ELEMENT FINAL_PART-1.52014 IS DISTORTING EXCESSIVELY.
   ELEMENT FINAL_PART-1.52016 IS DISTORTING EXCESSIVELY.
   ELEMENT FINAL_PART-1.52017 IS DISTORTING EXCESSIVELY.
   ELEMENT FINAL_PART-1.52018 IS DISTORTING EXCESSIVELY.
   ELEMENT FINAL_PART-1.52019 IS DISTORTING EXCESSIVELY.
   ELEMENT FINAL_PART-1.52022 IS DISTORTING EXCESSIVELY.
   ELEMENT FINAL_PART-1.52027 IS DISTORTING EXCESSIVELY.
   ELEMENT FINAL_PART-1.52028 IS DISTORTING EXCESSIVELY.
   ELEMENT FINAL_PART-1.52029 IS DISTORTING EXCESSIVELY.
   ELEMENT FINAL_PART-1.52031 IS DISTORTING EXCESSIVELY.
   ELEMENT FINAL_PART-1.52034 IS DISTORTING EXCESSIVELY.
   ELEMENT FINAL_PART-1.52038 IS DISTORTING EXCESSIVELY.
   ELEMENT FINAL_PART-1.52039 IS DISTORTING EXCESSIVELY.
   ELEMENT FINAL_PART-1.52041 IS DISTORTING EXCESSIVELY.
   ELEMENT FINAL_PART-1.52045 IS DISTORTING EXCESSIVELY.
   ELEMENT FINAL_PART-1.52046 IS DISTORTING EXCESSIVELY.
   ELEMENT FINAL_PART-1.52049 IS DISTORTING EXCESSIVELY.
   ELEMENT FINAL_PART-1.52050 IS DISTORTING EXCESSIVELY.
   ELEMENT FINAL_PART-1.52051 IS DISTORTING EXCESSIVELY.
   ELEMENT FINAL_PART-1.52052 IS DISTORTING EXCESSIVELY.
   ELEMENT FINAL_PART-1.52053 IS DISTORTING EXCESSIVELY.
   ELEMENT FINAL_PART-1.52054 IS DISTORTING EXCESSIVELY.
   ELEMENT FINAL_PART-1.52055 IS DISTORTING EXCESSIVELY.
   ELEMENT FINAL_PART-1.52056 IS DISTORTING EXCESSIVELY.
   ELEMENT FINAL_PART-1.52059 IS DISTORTING EXCESSIVELY.
   ELEMENT FINAL_PART-1.52062 IS DISTORTING EXCESSIVELY.
   ELEMENT FINAL_PART-1.52064 IS DISTORTING EXCESSIVELY.
   ELEMENT FINAL_PART-1.52065 IS DISTORTING EXCESSIVELY.
   ELEMENT FINAL_PART-1.52067 IS DISTORTING EXCESSIVELY.
   ELEMENT FINAL_PART-1.52068 IS DISTORTING EXCESSIVELY.
   ELEMENT FINAL_PART-1.52069 IS DISTORTING EXCESSIVELY.
   ELEMENT FINAL_PART-1.52072 IS DISTORTING EXCESSIVELY.
   ELEMENT FINAL_PART-1.52074 IS DISTORTING EXCESSIVELY.
   ELEMENT FINAL_PART-1.52078 IS DISTORTING EXCESSIVELY.
   ELEMENT FINAL_PART-1.52079 IS DISTORTING EXCESSIVELY.
   ELEMENT FINAL_PART-1.52080 IS DISTORTING EXCESSIVELY.
   ELEMENT FINAL_PART-1.52081 IS DISTORTING EXCESSIVELY.
   ELEMENT FINAL_PART-1.52082 IS DISTORTING EXCESSIVELY.
   ELEMENT FINAL_PART-1.52083 IS DISTORTING EXCESSIVELY.
   ELEMENT FINAL_PART-1.52087 IS DISTORTING EXCESSIVELY.
   ELEMENT FINAL_PART-1.52088 IS DISTORTING EXCESSIVELY.
   ELEMENT FINAL_PART-1.52090 IS DISTORTING EXCESSIVELY.
   ELEMENT FINAL_PART-1.52091 IS DISTORTING EXCESSIVELY.
   ELEMENT FINAL_PART-1.52092 IS DISTORTING EXCESSIVELY.
   ELEMENT FINAL_PART-1.52093 IS DISTORTING EXCESSIVELY.
   ELEMENT FINAL_PART-1.52094 IS DISTORTING EXCESSIVELY.
   ELEMENT FINAL_PART-1.52096 IS DISTORTING EXCESSIVELY.
   ELEMENT FINAL_PART-1.52099 IS DISTORTING EXCESSIVELY.
   ELEMENT FINAL_PART-1.52100 IS DISTORTING EXCESSIVELY.
   ELEMENT FINAL_PART-1.52101 IS DISTORTING EXCESSIVELY.
   ELEMENT FINAL_PART-1.52103 IS DISTORTING EXCESSIVELY.
   ELEMENT FINAL_PART-1.52105 IS DISTORTING EXCESSIVELY.
   ELEMENT FINAL_PART-1.52107 IS DISTORTING EXCESSIVELY.
   ELEMENT FINAL_PART-1.52108 IS DISTORTING EXCESSIVELY.
   ELEMENT FINAL_PART-1.52111 IS DISTORTING EXCESSIVELY.
   ELEMENT FINAL_PART-1.52114 IS DISTORTING EXCESSIVELY.
   ELEMENT FINAL_PART-1.52116 IS DISTORTING EXCESSIVELY.
   ELEMENT FINAL_PART-1.52125 IS DISTORTING EXCESSIVELY.
   ELEMENT FINAL_PART-1.52126 IS DISTORTING EXCESSIVELY.
   ELEMENT FINAL_PART-1.52127 IS DISTORTING EXCESSIVELY.
   ELEMENT FINAL_PART-1.52129 IS DISTORTING EXCESSIVELY.
   ELEMENT FINAL_PART-1.52130 IS DISTORTING EXCESSIVELY.
   ELEMENT FINAL_PART-1.52133 IS DISTORTING EXCESSIVELY.
   ELEMENT FINAL_PART-1.52134 IS DISTORTING EXCESSIVELY.
   ELEMENT FINAL_PART-1.52137 IS DISTORTING EXCESSIVELY.
   ELEMENT FINAL_PART-1.52139 IS DISTORTING EXCESSIVELY.
   ELEMENT FINAL_PART-1.52140 IS DISTORTING EXCESSIVELY.
   ELEMENT FINAL_PART-1.52141 IS DISTORTING EXCESSIVELY.
   ELEMENT FINAL_PART-1.52142 IS DISTORTING EXCESSIVELY.
   ELEMENT FINAL_PART-1.52145 IS DISTORTING EXCESSIVELY.
   ELEMENT FINAL_PART-1.52147 IS DISTORTING EXCESSIVELY.
   ELEMENT FINAL_PART-1.52148 IS DISTORTING EXCESSIVELY.
   ELEMENT FINAL_PART-1.52149 IS DISTORTING EXCESSIVELY.
   ELEMENT FINAL_PART-1.52150 IS DISTORTING EXCESSIVELY.
   ELEMENT FINAL_PART-1.52153 IS DISTORTING EXCESSIVELY.
   ELEMENT FINAL_PART-1.52156 IS DISTORTING EXCESSIVELY.
   ELEMENT FINAL_PART-1.52159 IS DISTORTING EXCESSIVELY.
   ELEMENT FINAL_PART-1.52163 IS DISTORTING EXCESSIVELY.
   ELEMENT FINAL_PART-1.52164 IS DISTORTING EXCESSIVELY.
   ELEMENT FINAL_PART-1.52166 IS DISTORTING EXCESSIVELY.
   ELEMENT FINAL_PART-1.52168 IS DISTORTING EXCESSIVELY.
   ELEMENT FINAL_PART-1.52171 IS DISTORTING EXCESSIVELY.
   ELEMENT FINAL_PART-1.52172 IS DISTORTING EXCESSIVELY.
   ELEMENT FINAL_PART-1.52173 IS DISTORTING EXCESSIVELY.
   ELEMENT FINAL_PART-1.52175 IS DISTORTING EXCESSIVELY.
   ELEMENT FINAL_PART-1.52176 IS DISTORTING EXCESSIVELY.
   ELEMENT FINAL_PART-1.52177 IS DISTORTING EXCESSIVELY.
   ELEMENT FINAL_PART-1.52178 IS DISTORTING EXCESSIVELY.
   ELEMENT FINAL_PART-1.52179 IS DISTORTING EXCESSIVELY.
   ELEMENT FINAL_PART-1.52181 IS DISTORTING EXCESSIVELY.
   ELEMENT FINAL_PART-1.52186 IS DISTORTING EXCESSIVELY.
   ELEMENT FINAL_PART-1.52187 IS DISTORTING EXCESSIVELY.
   ELEMENT FINAL_PART-1.52188 IS DISTORTING EXCESSIVELY.
   ELEMENT FINAL_PART-1.52189 IS DISTORTING EXCESSIVELY.
   ELEMENT FINAL_PART-1.52191 IS DISTORTING EXCESSIVELY.
   ELEMENT FINAL_PART-1.52192 IS DISTORTING EXCESSIVELY.
   ELEMENT FINAL_PART-1.52195 IS DISTORTING EXCESSIVELY.
   ELEMENT FINAL_PART-1.52196 IS DISTORTING EXCESSIVELY.
   ELEMENT FINAL_PART-1.52197 IS DISTORTING EXCESSIVELY.
   ELEMENT FINAL_PART-1.52198 IS DISTORTING EXCESSIVELY.
   ELEMENT FINAL_PART-1.52200 IS DISTORTING EXCESSIVELY.
   ELEMENT FINAL_PART-1.52202 IS DISTORTING EXCESSIVELY.
   ELEMENT FINAL_PART-1.52203 IS DISTORTING EXCESSIVELY.
   ELEMENT FINAL_PART-1.52204 IS DISTORTING EXCESSIVELY.
   ELEMENT FINAL_PART-1.52205 IS DISTORTING EXCESSIVELY.
   ELEMENT FINAL_PART-1.52206 IS DISTORTING EXCESSIVELY.
   ELEMENT FINAL_PART-1.52207 IS DISTORTING EXCESSIVELY.
   ELEMENT FINAL_PART-1.52209 IS DISTORTING EXCESSIVELY.
   ELEMENT FINAL_PART-1.52210 IS DISTORTING EXCESSIVELY.
   ELEMENT FINAL_PART-1.52211 IS DISTORTING EXCESSIVELY.
   ELEMENT FINAL_PART-1.52214 IS DISTORTING EXCESSIVELY.
   ELEMENT FINAL_PART-1.52215 IS DISTORTING EXCESSIVELY.
   ELEMENT FINAL_PART-1.52217 IS DISTORTING EXCESSIVELY.
   ELEMENT FINAL_PART-1.52219 IS DISTORTING EXCESSIVELY.
   ELEMENT FINAL_PART-1.52222 IS DISTORTING EXCESSIVELY.
   ELEMENT FINAL_PART-1.104961 IS DISTORTING EXCESSIVELY.
   ELEMENT FINAL_PART-1.104962 IS DISTORTING EXCESSIVELY.
   ELEMENT FINAL_PART-1.104963 IS DISTORTING EXCESSIVELY.
   ELEMENT FINAL_PART-1.104964 IS DISTORTING EXCESSIVELY.
   ELEMENT FINAL_PART-1.104966 IS DISTORTING EXCESSIVELY.
   ELEMENT FINAL_PART-1.104970 IS DISTORTING EXCESSIVELY.
   ELEMENT FINAL_PART-1.104975 IS DISTORTING EXCESSIVELY.
   ELEMENT FINAL_PART-1.104979 IS DISTORTING EXCESSIVELY.
   ELEMENT FINAL_PART-1.104982 IS DISTORTING EXCESSIVELY.
   ELEMENT FINAL_PART-1.104989 IS DISTORTING EXCESSIVELY.
   ELEMENT FINAL_PART-1.104990 IS DISTORTING EXCESSIVELY.
   ELEMENT FINAL_PART-1.104996 IS DISTORTING EXCESSIVELY.
   ELEMENT FINAL_PART-1.104997 IS DISTORTING EXCESSIVELY.
   ELEMENT FINAL_PART-1.105000 IS DISTORTING EXCESSIVELY.
   ELEMENT FINAL_PART-1.105001 IS DISTORTING EXCESSIVELY.
   ELEMENT FINAL_PART-1.105004 IS DISTORTING EXCESSIVELY.
   ELEMENT FINAL_PART-1.105005 IS DISTORTING EXCESSIVELY.
   ELEMENT FINAL_PART-1.105010 IS DISTORTING EXCESSIVELY.
   ELEMENT FINAL_PART-1.105012 IS DISTORTING EXCESSIVELY.
   ELEMENT FINAL_PART-1.105014 IS DISTORTING EXCESSIVELY.
   ELEMENT FINAL_PART-1.105015 IS DISTORTING EXCESSIVELY.
   ELEMENT FINAL_PART-1.105016 IS DISTORTING EXCESSIVELY.
   ELEMENT FINAL_PART-1.105018 IS DISTORTING EXCESSIVELY.
   ELEMENT FINAL_PART-1.105020 IS DISTORTING EXCESSIVELY.
   ELEMENT FINAL_PART-1.105021 IS DISTORTING EXCESSIVELY.
   ELEMENT FINAL_PART-1.105024 IS DISTORTING EXCESSIVELY.
   ELEMENT FINAL_PART-1.105028 IS DISTORTING EXCESSIVELY.
   ELEMENT FINAL_PART-1.105029 IS DISTORTING EXCESSIVELY.
   ELEMENT FINAL_PART-1.105032 IS DISTORTING EXCESSIVELY.
   ELEMENT FINAL_PART-1.105036 IS DISTORTING EXCESSIVELY.
   ELEMENT FINAL_PART-1.105037 IS DISTORTING EXCESSIVELY.
   ELEMENT FINAL_PART-1.105039 IS DISTORTING EXCESSIVELY.
   ELEMENT FINAL_PART-1.105041 IS DISTORTING EXCESSIVELY.
   ELEMENT FINAL_PART-1.105042 IS DISTORTING EXCESSIVELY.
   ELEMENT FINAL_PART-1.105043 IS DISTORTING EXCESSIVELY.
   ELEMENT FINAL_PART-1.105044 IS DISTORTING EXCESSIVELY.
   ELEMENT FINAL_PART-1.105045 IS DISTORTING EXCESSIVELY.
   ELEMENT FINAL_PART-1.105046 IS DISTORTING EXCESSIVELY.
   ELEMENT FINAL_PART-1.105048 IS DISTORTING EXCESSIVELY.
   ELEMENT FINAL_PART-1.105052 IS DISTORTING EXCESSIVELY.
   ELEMENT FINAL_PART-1.105054 IS DISTORTING EXCESSIVELY.
   ELEMENT FINAL_PART-1.105055 IS DISTORTING EXCESSIVELY.
   ELEMENT FINAL_PART-1.105056 IS DISTORTING EXCESSIVELY.
   ELEMENT FINAL_PART-1.105058 IS DISTORTING EXCESSIVELY.
   ELEMENT FINAL_PART-1.105059 IS DISTORTING EXCESSIVELY.
   ELEMENT FINAL_PART-1.105062 IS DISTORTING EXCESSIVELY.
   ELEMENT FINAL_PART-1.105064 IS DISTORTING EXCESSIVELY.
   ELEMENT FINAL_PART-1.105065 IS DISTORTING EXCESSIVELY.
   ELEMENT FINAL_PART-1.105066 IS DISTORTING EXCESSIVELY.
   ELEMENT FINAL_PART-1.105067 IS DISTORTING EXCESSIVELY.
   ELEMENT FINAL_PART-1.105072 IS DISTORTING EXCESSIVELY.
   ELEMENT FINAL_PART-1.105074 IS DISTORTING EXCESSIVELY.
   ELEMENT FINAL_PART-1.105075 IS DISTORTING EXCESSIVELY.
   ELEMENT FINAL_PART-1.105076 IS DISTORTING EXCESSIVELY.
   ELEMENT FINAL_PART-1.105079 IS DISTORTING EXCESSIVELY.
   ELEMENT FINAL_PART-1.105080 IS DISTORTING EXCESSIVELY.
   ELEMENT FINAL_PART-1.105086 IS DISTORTING EXCESSIVELY.
   ELEMENT FINAL_PART-1.105087 IS DISTORTING EXCESSIVELY.
   ELEMENT FINAL_PART-1.105088 IS DISTORTING EXCESSIVELY.
   ELEMENT FINAL_PART-1.105089 IS DISTORTING EXCESSIVELY.
   ELEMENT FINAL_PART-1.105091 IS DISTORTING EXCESSIVELY.
   ELEMENT FINAL_PART-1.105094 IS DISTORTING EXCESSIVELY.
   ELEMENT FINAL_PART-1.105096 IS DISTORTING EXCESSIVELY.
   ELEMENT FINAL_PART-1.105097 IS DISTORTING EXCESSIVELY.
   ELEMENT FINAL_PART-1.105104 IS DISTORTING EXCESSIVELY.
   ELEMENT FINAL_PART-1.105105 IS DISTORTING EXCESSIVELY.
   ELEMENT FINAL_PART-1.105106 IS DISTORTING EXCESSIVELY.
   ELEMENT FINAL_PART-1.105107 IS DISTORTING EXCESSIVELY.
   ELEMENT FINAL_PART-1.105109 IS DISTORTING EXCESSIVELY.
   ELEMENT FINAL_PART-1.105112 IS DISTORTING EXCESSIVELY.
   ELEMENT FINAL_PART-1.105114 IS DISTORTING EXCESSIVELY.
   ELEMENT FINAL_PART-1.105115 IS DISTORTING EXCESSIVELY.
   ELEMENT FINAL_PART-1.105118 IS DISTORTING EXCESSIVELY.
   ELEMENT FINAL_PART-1.105122 IS DISTORTING EXCESSIVELY.
   ELEMENT FINAL_PART-1.105123 IS DISTORTING EXCESSIVELY.
   ELEMENT FINAL_PART-1.105126 IS DISTORTING EXCESSIVELY.
   ELEMENT FINAL_PART-1.105127 IS DISTORTING EXCESSIVELY.
   ELEMENT FINAL_PART-1.105129 IS DISTORTING EXCESSIVELY.
   ELEMENT FINAL_PART-1.105134 IS DISTORTING EXCESSIVELY.
   ELEMENT FINAL_PART-1.105137 IS DISTORTING EXCESSIVELY.
   ELEMENT FINAL_PART-1.105138 IS DISTORTING EXCESSIVELY.
   ELEMENT FINAL_PART-1.105139 IS DISTORTING EXCESSIVELY.
   ELEMENT FINAL_PART-1.105140 IS DISTORTING EXCESSIVELY.
   ELEMENT FINAL_PART-1.105141 IS DISTORTING EXCESSIVELY.
   ELEMENT FINAL_PART-1.105142 IS DISTORTING EXCESSIVELY.
   ELEMENT FINAL_PART-1.105151 IS DISTORTING EXCESSIVELY.
   ELEMENT FINAL_PART-1.105153 IS DISTORTING EXCESSIVELY.
   ELEMENT FINAL_PART-1.105156 IS DISTORTING EXCESSIVELY.
   ELEMENT FINAL_PART-1.105157 IS DISTORTING EXCESSIVELY.
   ELEMENT FINAL_PART-1.105158 IS DISTORTING EXCESSIVELY.
   ELEMENT FINAL_PART-1.105160 IS DISTORTING EXCESSIVELY.
   ELEMENT FINAL_PART-1.105163 IS DISTORTING EXCESSIVELY.
   ELEMENT FINAL_PART-1.105164 IS DISTORTING EXCESSIVELY.
   ELEMENT FINAL_PART-1.105165 IS DISTORTING EXCESSIVELY.
   ELEMENT FINAL_PART-1.105168 IS DISTORTING EXCESSIVELY.
   ELEMENT FINAL_PART-1.105169 IS DISTORTING EXCESSIVELY.
   ELEMENT FINAL_PART-1.105170 IS DISTORTING EXCESSIVELY.
   ELEMENT FINAL_PART-1.105172 IS DISTORTING EXCESSIVELY.
   ELEMENT FINAL_PART-1.105175 IS DISTORTING EXCESSIVELY.
   ELEMENT FINAL_PART-1.105179 IS DISTORTING EXCESSIVELY.
   ELEMENT FINAL_PART-1.105180 IS DISTORTING EXCESSIVELY.
   ELEMENT FINAL_PART-1.105181 IS DISTORTING EXCESSIVELY.
   ELEMENT FINAL_PART-1.105182 IS DISTORTING EXCESSIVELY.
   ELEMENT FINAL_PART-1.105183 IS DISTORTING EXCESSIVELY.
   ELEMENT FINAL_PART-1.105184 IS DISTORTING EXCESSIVELY.
   ELEMENT FINAL_PART-1.105186 IS DISTORTING EXCESSIVELY.
   ELEMENT FINAL_PART-1.105193 IS DISTORTING EXCESSIVELY.
   ELEMENT FINAL_PART-1.105195 IS DISTORTING EXCESSIVELY.
   ELEMENT FINAL_PART-1.105196 IS DISTORTING EXCESSIVELY.
   ELEMENT FINAL_PART-1.105199 IS DISTORTING EXCESSIVELY.
   ELEMENT FINAL_PART-1.105201 IS DISTORTING EXCESSIVELY.
   ELEMENT FINAL_PART-1.105203 IS DISTORTING EXCESSIVELY.
   ELEMENT FINAL_PART-1.105206 IS DISTORTING EXCESSIVELY.
   ELEMENT FINAL_PART-1.105208 IS DISTORTING EXCESSIVELY.
   ELEMENT FINAL_PART-1.105209 IS DISTORTING EXCESSIVELY.
   ELEMENT FINAL_PART-1.105210 IS DISTORTING EXCESSIVELY.
   ELEMENT FINAL_PART-1.105212 IS DISTORTING EXCESSIVELY.
   ELEMENT FINAL_PART-1.105213 IS DISTORTING EXCESSIVELY.
   ELEMENT FINAL_PART-1.105216 IS DISTORTING EXCESSIVELY.
   ELEMENT FINAL_PART-1.258 IS DISTORTING EXCESSIVELY.
   ELEMENT FINAL_PART-1.259 IS DISTORTING EXCESSIVELY.
   ELEMENT FINAL_PART-1.263 IS DISTORTING EXCESSIVELY.
   ELEMENT FINAL_PART-1.264 IS DISTORTING EXCESSIVELY.
   ELEMENT FINAL_PART-1.265 IS DISTORTING EXCESSIVELY.
   ELEMENT FINAL_PART-1.267 IS DISTORTING EXCESSIVELY.
   ELEMENT FINAL_PART-1.268 IS DISTORTING EXCESSIVELY.
   ELEMENT FINAL_PART-1.271 IS DISTORTING EXCESSIVELY.
   ELEMENT FINAL_PART-1.273 IS DISTORTING EXCESSIVELY.
   ELEMENT FINAL_PART-1.275 IS DISTORTING EXCESSIVELY.
   ELEMENT FINAL_PART-1.277 IS DISTORTING EXCESSIVELY.
   ELEMENT FINAL_PART-1.282 IS DISTORTING EXCESSIVELY.
   ELEMENT FINAL_PART-1.283 IS DISTORTING EXCESSIVELY.
   ELEMENT FINAL_PART-1.285 IS DISTORTING EXCESSIVELY.
   ELEMENT FINAL_PART-1.287 IS DISTORTING EXCESSIVELY.
   ELEMENT FINAL_PART-1.288 IS DISTORTING EXCESSIVELY.
   ELEMENT FINAL_PART-1.290 IS DISTORTING EXCESSIVELY.
   ELEMENT FINAL_PART-1.297 IS DISTORTING EXCESSIVELY.
   ELEMENT FINAL_PART-1.299 IS DISTORTING EXCESSIVELY.
   ELEMENT FINAL_PART-1.302 IS DISTORTING EXCESSIVELY.
   ELEMENT FINAL_PART-1.306 IS DISTORTING EXCESSIVELY.
   ELEMENT FINAL_PART-1.308 IS DISTORTING EXCESSIVELY.
   ELEMENT FINAL_PART-1.312 IS DISTORTING EXCESSIVELY.
   ELEMENT FINAL_PART-1.313 IS DISTORTING EXCESSIVELY.
   ELEMENT FINAL_PART-1.316 IS DISTORTING EXCESSIVELY.
   ELEMENT FINAL_PART-1.317 IS DISTORTING EXCESSIVELY.
   ELEMENT FINAL_PART-1.319 IS DISTORTING EXCESSIVELY.
   ELEMENT FINAL_PART-1.323 IS DISTORTING EXCESSIVELY.
   ELEMENT FINAL_PART-1.332 IS DISTORTING EXCESSIVELY.
   ELEMENT FINAL_PART-1.336 IS DISTORTING EXCESSIVELY.
   ELEMENT FINAL_PART-1.337 IS DISTORTING EXCESSIVELY.
   ELEMENT FINAL_PART-1.338 IS DISTORTING EXCESSIVELY.
   ELEMENT FINAL_PART-1.339 IS DISTORTING EXCESSIVELY.
   ELEMENT FINAL_PART-1.342 IS DISTORTING EXCESSIVELY.
   ELEMENT FINAL_PART-1.343 IS DISTORTING EXCESSIVELY.
   ELEMENT FINAL_PART-1.344 IS DISTORTING EXCESSIVELY.
   ELEMENT FINAL_PART-1.346 IS DISTORTING EXCESSIVELY.
   ELEMENT FINAL_PART-1.347 IS DISTORTING EXCESSIVELY.
   ELEMENT FINAL_PART-1.348 IS DISTORTING EXCESSIVELY.
   ELEMENT FINAL_PART-1.356 IS DISTORTING EXCESSIVELY.
   ELEMENT FINAL_PART-1.359 IS DISTORTING EXCESSIVELY.
   ELEMENT FINAL_PART-1.360 IS DISTORTING EXCESSIVELY.
   ELEMENT FINAL_PART-1.366 IS DISTORTING EXCESSIVELY.
   ELEMENT FINAL_PART-1.367 IS DISTORTING EXCESSIVELY.
   ELEMENT FINAL_PART-1.374 IS DISTORTING EXCESSIVELY.
   ELEMENT FINAL_PART-1.375 IS DISTORTING EXCESSIVELY.
   ELEMENT FINAL_PART-1.384 IS DISTORTING EXCESSIVELY.
   ELEMENT FINAL_PART-1.385 IS DISTORTING EXCESSIVELY.
   ELEMENT FINAL_PART-1.387 IS DISTORTING EXCESSIVELY.
   ELEMENT FINAL_PART-1.388 IS DISTORTING EXCESSIVELY.
   ELEMENT FINAL_PART-1.389 IS DISTORTING EXCESSIVELY.
   ELEMENT FINAL_PART-1.391 IS DISTORTING EXCESSIVELY.
   ELEMENT FINAL_PART-1.392 IS DISTORTING EXCESSIVELY.
   ELEMENT FINAL_PART-1.395 IS DISTORTING EXCESSIVELY.
   ELEMENT FINAL_PART-1.396 IS DISTORTING EXCESSIVELY.
   ELEMENT FINAL_PART-1.399 IS DISTORTING EXCESSIVELY.
   ELEMENT FINAL_PART-1.400 IS DISTORTING EXCESSIVELY.
   ELEMENT FINAL_PART-1.401 IS DISTORTING EXCESSIVELY.
   ELEMENT FINAL_PART-1.403 IS DISTORTING EXCESSIVELY.
   ELEMENT FINAL_PART-1.404 IS DISTORTING EXCESSIVELY.
   ELEMENT FINAL_PART-1.410 IS DISTORTING EXCESSIVELY.
   ELEMENT FINAL_PART-1.411 IS DISTORTING EXCESSIVELY.
   ELEMENT FINAL_PART-1.412 IS DISTORTING EXCESSIVELY.
   ELEMENT FINAL_PART-1.415 IS DISTORTING EXCESSIVELY.
   ELEMENT FINAL_PART-1.416 IS DISTORTING EXCESSIVELY.
   ELEMENT FINAL_PART-1.417 IS DISTORTING EXCESSIVELY.
   ELEMENT FINAL_PART-1.418 IS DISTORTING EXCESSIVELY.
   ELEMENT FINAL_PART-1.419 IS DISTORTING EXCESSIVELY.
   ELEMENT FINAL_PART-1.421 IS DISTORTING EXCESSIVELY.
   ELEMENT FINAL_PART-1.422 IS DISTORTING EXCESSIVELY.
   ELEMENT FINAL_PART-1.427 IS DISTORTING EXCESSIVELY.
   ELEMENT FINAL_PART-1.428 IS DISTORTING EXCESSIVELY.
   ELEMENT FINAL_PART-1.430 IS DISTORTING EXCESSIVELY.
   ELEMENT FINAL_PART-1.431 IS DISTORTING EXCESSIVELY.
   ELEMENT FINAL_PART-1.432 IS DISTORTING EXCESSIVELY.
   ELEMENT FINAL_PART-1.436 IS DISTORTING EXCESSIVELY.
   ELEMENT FINAL_PART-1.437 IS DISTORTING EXCESSIVELY.
   ELEMENT FINAL_PART-1.439 IS DISTORTING EXCESSIVELY.
   ELEMENT FINAL_PART-1.441 IS DISTORTING EXCESSIVELY.
   ELEMENT FINAL_PART-1.443 IS DISTORTING EXCESSIVELY.
   ELEMENT FINAL_PART-1.444 IS DISTORTING EXCESSIVELY.
   ELEMENT FINAL_PART-1.448 IS DISTORTING EXCESSIVELY.
   ELEMENT FINAL_PART-1.449 IS DISTORTING EXCESSIVELY.
   ELEMENT FINAL_PART-1.450 IS DISTORTING EXCESSIVELY.
   ELEMENT FINAL_PART-1.454 IS DISTORTING EXCESSIVELY.
   ELEMENT FINAL_PART-1.455 IS DISTORTING EXCESSIVELY.
   ELEMENT FINAL_PART-1.456 IS DISTORTING EXCESSIVELY.
   ELEMENT FINAL_PART-1.457 IS DISTORTING EXCESSIVELY.
   ELEMENT FINAL_PART-1.462 IS DISTORTING EXCESSIVELY.
   ELEMENT FINAL_PART-1.467 IS DISTORTING EXCESSIVELY.
   ELEMENT FINAL_PART-1.468 IS DISTORTING EXCESSIVELY.
   ELEMENT FINAL_PART-1.470 IS DISTORTING EXCESSIVELY.
   ELEMENT FINAL_PART-1.472 IS DISTORTING EXCESSIVELY.
   ELEMENT FINAL_PART-1.474 IS DISTORTING EXCESSIVELY.
   ELEMENT FINAL_PART-1.477 IS DISTORTING EXCESSIVELY.
   ELEMENT FINAL_PART-1.479 IS DISTORTING EXCESSIVELY.
   ELEMENT FINAL_PART-1.480 IS DISTORTING EXCESSIVELY.
   ELEMENT FINAL_PART-1.481 IS DISTORTING EXCESSIVELY.
   ELEMENT FINAL_PART-1.482 IS DISTORTING EXCESSIVELY.
   ELEMENT FINAL_PART-1.483 IS DISTORTING EXCESSIVELY.
   ELEMENT FINAL_PART-1.484 IS DISTORTING EXCESSIVELY.
   ELEMENT FINAL_PART-1.486 IS DISTORTING EXCESSIVELY.
   ELEMENT FINAL_PART-1.488 IS DISTORTING EXCESSIVELY.
   ELEMENT FINAL_PART-1.492 IS DISTORTING EXCESSIVELY.
   ELEMENT FINAL_PART-1.493 IS DISTORTING EXCESSIVELY.
   ELEMENT FINAL_PART-1.495 IS DISTORTING EXCESSIVELY.
   ELEMENT FINAL_PART-1.497 IS DISTORTING EXCESSIVELY.
   ELEMENT FINAL_PART-1.499 IS DISTORTING EXCESSIVELY.
   ELEMENT FINAL_PART-1.501 IS DISTORTING EXCESSIVELY.
   ELEMENT FINAL_PART-1.503 IS DISTORTING EXCESSIVELY.
   ELEMENT FINAL_PART-1.504 IS DISTORTING EXCESSIVELY.
   ELEMENT FINAL_PART-1.505 IS DISTORTING EXCESSIVELY.
   ELEMENT FINAL_PART-1.506 IS DISTORTING EXCESSIVELY.
   ELEMENT FINAL_PART-1.509 IS DISTORTING EXCESSIVELY.
   ELEMENT FINAL_PART-1.510 IS DISTORTING EXCESSIVELY.
   ELEMENT FINAL_PART-1.511 IS DISTORTING EXCESSIVELY.
   ELEMENT FINAL_PART-1.2818 IS DISTORTING EXCESSIVELY.
   ELEMENT FINAL_PART-1.2820 IS DISTORTING EXCESSIVELY.
   ELEMENT FINAL_PART-1.2821 IS DISTORTING EXCESSIVELY.
   ELEMENT FINAL_PART-1.2824 IS DISTORTING EXCESSIVELY.
   ELEMENT FINAL_PART-1.2825 IS DISTORTING EXCESSIVELY.
   ELEMENT FINAL_PART-1.2826 IS DISTORTING EXCESSIVELY.
   ELEMENT FINAL_PART-1.2829 IS DISTORTING EXCESSIVELY.
   ELEMENT FINAL_PART-1.2831 IS DISTORTING EXCESSIVELY.
   ELEMENT FINAL_PART-1.2833 IS DISTORTING EXCESSIVELY.
   ELEMENT FINAL_PART-1.2837 IS DISTORTING EXCESSIVELY.
   ELEMENT FINAL_PART-1.2838 IS DISTORTING EXCESSIVELY.
   ELEMENT FINAL_PART-1.2840 IS DISTORTING EXCESSIVELY.
   ELEMENT FINAL_PART-1.2844 IS DISTORTING EXCESSIVELY.
   ELEMENT FINAL_PART-1.2845 IS DISTORTING EXCESSIVELY.
   ELEMENT FINAL_PART-1.2846 IS DISTORTING EXCESSIVELY.
   ELEMENT FINAL_PART-1.2849 IS DISTORTING EXCESSIVELY.
   ELEMENT FINAL_PART-1.2852 IS DISTORTING EXCESSIVELY.
   ELEMENT FINAL_PART-1.2853 IS DISTORTING EXCESSIVELY.
   ELEMENT FINAL_PART-1.2857 IS DISTORTING EXCESSIVELY.
   ELEMENT FINAL_PART-1.2859 IS DISTORTING EXCESSIVELY.
   ELEMENT FINAL_PART-1.2860 IS DISTORTING EXCESSIVELY.
   ELEMENT FINAL_PART-1.2863 IS DISTORTING EXCESSIVELY.
   ELEMENT FINAL_PART-1.2864 IS DISTORTING EXCESSIVELY.
   ELEMENT FINAL_PART-1.2868 IS DISTORTING EXCESSIVELY.
   ELEMENT FINAL_PART-1.2869 IS DISTORTING EXCESSIVELY.
   ELEMENT FINAL_PART-1.2876 IS DISTORTING EXCESSIVELY.
   ELEMENT FINAL_PART-1.2877 IS DISTORTING EXCESSIVELY.
   ELEMENT FINAL_PART-1.2880 IS DISTORTING EXCESSIVELY.
   ELEMENT FINAL_PART-1.2882 IS DISTORTING EXCESSIVELY.
   ELEMENT FINAL_PART-1.2885 IS DISTORTING EXCESSIVELY.
   ELEMENT FINAL_PART-1.2891 IS DISTORTING EXCESSIVELY.
   ELEMENT FINAL_PART-1.2894 IS DISTORTING EXCESSIVELY.
   ELEMENT FINAL_PART-1.2895 IS DISTORTING EXCESSIVELY.
   ELEMENT FINAL_PART-1.2896 IS DISTORTING EXCESSIVELY.
   ELEMENT FINAL_PART-1.2897 IS DISTORTING EXCESSIVELY.
   ELEMENT FINAL_PART-1.2898 IS DISTORTING EXCESSIVELY.
   ELEMENT FINAL_PART-1.2900 IS DISTORTING EXCESSIVELY.
   ELEMENT FINAL_PART-1.2902 IS DISTORTING EXCESSIVELY.
   ELEMENT FINAL_PART-1.2903 IS DISTORTING EXCESSIVELY.
   ELEMENT FINAL_PART-1.2906 IS DISTORTING EXCESSIVELY.
   ELEMENT FINAL_PART-1.2907 IS DISTORTING EXCESSIVELY.
   ELEMENT FINAL_PART-1.2908 IS DISTORTING EXCESSIVELY.
   ELEMENT FINAL_PART-1.2910 IS DISTORTING EXCESSIVELY.
   ELEMENT FINAL_PART-1.2912 IS DISTORTING EXCESSIVELY.
   ELEMENT FINAL_PART-1.2913 IS DISTORTING EXCESSIVELY.
   ELEMENT FINAL_PART-1.2914 IS DISTORTING EXCESSIVELY.
   ELEMENT FINAL_PART-1.2915 IS DISTORTING EXCESSIVELY.
   ELEMENT FINAL_PART-1.2917 IS DISTORTING EXCESSIVELY.
   ELEMENT FINAL_PART-1.2918 IS DISTORTING EXCESSIVELY.
   ELEMENT FINAL_PART-1.2922 IS DISTORTING EXCESSIVELY.
   ELEMENT FINAL_PART-1.2924 IS DISTORTING EXCESSIVELY.
   ELEMENT FINAL_PART-1.2926 IS DISTORTING EXCESSIVELY.
   ELEMENT FINAL_PART-1.2930 IS DISTORTING EXCESSIVELY.
   ELEMENT FINAL_PART-1.2931 IS DISTORTING EXCESSIVELY.
   ELEMENT FINAL_PART-1.2932 IS DISTORTING EXCESSIVELY.
   ELEMENT FINAL_PART-1.2933 IS DISTORTING EXCESSIVELY.
   ELEMENT FINAL_PART-1.2934 IS DISTORTING EXCESSIVELY.
   ELEMENT FINAL_PART-1.2937 IS DISTORTING EXCESSIVELY.
   ELEMENT FINAL_PART-1.2940 IS DISTORTING EXCESSIVELY.
   ELEMENT FINAL_PART-1.2941 IS DISTORTING EXCESSIVELY.
   ELEMENT FINAL_PART-1.2942 IS DISTORTING EXCESSIVELY.
   ELEMENT FINAL_PART-1.2944 IS DISTORTING EXCESSIVELY.
   ELEMENT FINAL_PART-1.2945 IS DISTORTING EXCESSIVELY.
   ELEMENT FINAL_PART-1.2946 IS DISTORTING EXCESSIVELY.
   ELEMENT FINAL_PART-1.2947 IS DISTORTING EXCESSIVELY.
   ELEMENT FINAL_PART-1.2950 IS DISTORTING EXCESSIVELY.
   ELEMENT FINAL_PART-1.2954 IS DISTORTING EXCESSIVELY.
   ELEMENT FINAL_PART-1.2955 IS DISTORTING EXCESSIVELY.
   ELEMENT FINAL_PART-1.2957 IS DISTORTING EXCESSIVELY.
   ELEMENT FINAL_PART-1.2958 IS DISTORTING EXCESSIVELY.
   ELEMENT FINAL_PART-1.2959 IS DISTORTING EXCESSIVELY.
   ELEMENT FINAL_PART-1.2960 IS DISTORTING EXCESSIVELY.
   ELEMENT FINAL_PART-1.2962 IS DISTORTING EXCESSIVELY.
   ELEMENT FINAL_PART-1.2965 IS DISTORTING EXCESSIVELY.
   ELEMENT FINAL_PART-1.2967 IS DISTORTING EXCESSIVELY.
   ELEMENT FINAL_PART-1.2968 IS DISTORTING EXCESSIVELY.
   ELEMENT FINAL_PART-1.2970 IS DISTORTING EXCESSIVELY.
   ELEMENT FINAL_PART-1.2971 IS DISTORTING EXCESSIVELY.
   ELEMENT FINAL_PART-1.2972 IS DISTORTING EXCESSIVELY.
   ELEMENT FINAL_PART-1.2973 IS DISTORTING EXCESSIVELY.
   ELEMENT FINAL_PART-1.2975 IS DISTORTING EXCESSIVELY.
   ELEMENT FINAL_PART-1.2976 IS DISTORTING EXCESSIVELY.
   ELEMENT FINAL_PART-1.2977 IS DISTORTING EXCESSIVELY.
   ELEMENT FINAL_PART-1.2978 IS DISTORTING EXCESSIVELY.
   ELEMENT FINAL_PART-1.2980 IS DISTORTING EXCESSIVELY.
   ELEMENT FINAL_PART-1.2981 IS DISTORTING EXCESSIVELY.
   ELEMENT FINAL_PART-1.2982 IS DISTORTING EXCESSIVELY.
   ELEMENT FINAL_PART-1.2984 IS DISTORTING EXCESSIVELY.
   ELEMENT FINAL_PART-1.2986 IS DISTORTING EXCESSIVELY.
   ELEMENT FINAL_PART-1.2987 IS DISTORTING EXCESSIVELY.
   ELEMENT FINAL_PART-1.2991 IS DISTORTING EXCESSIVELY.
   ELEMENT FINAL_PART-1.2992 IS DISTORTING EXCESSIVELY.
   ELEMENT FINAL_PART-1.2993 IS DISTORTING EXCESSIVELY.
   ELEMENT FINAL_PART-1.2994 IS DISTORTING EXCESSIVELY.
   ELEMENT FINAL_PART-1.2997 IS DISTORTING EXCESSIVELY.
   ELEMENT FINAL_PART-1.3002 IS DISTORTING EXCESSIVELY.
   ELEMENT FINAL_PART-1.3004 IS DISTORTING EXCESSIVELY.
   ELEMENT FINAL_PART-1.3006 IS DISTORTING EXCESSIVELY.
   ELEMENT FINAL_PART-1.3007 IS DISTORTING EXCESSIVELY.
   ELEMENT FINAL_PART-1.3008 IS DISTORTING EXCESSIVELY.
   ELEMENT FINAL_PART-1.3010 IS DISTORTING EXCESSIVELY.
   ELEMENT FINAL_PART-1.3011 IS DISTORTING EXCESSIVELY.
   ELEMENT FINAL_PART-1.3013 IS DISTORTING EXCESSIVELY.
   ELEMENT FINAL_PART-1.3014 IS DISTORTING EXCESSIVELY.
   ELEMENT FINAL_PART-1.3019 IS DISTORTING EXCESSIVELY.
   ELEMENT FINAL_PART-1.3020 IS DISTORTING EXCESSIVELY.
   ELEMENT FINAL_PART-1.3022 IS DISTORTING EXCESSIVELY.
   ELEMENT FINAL_PART-1.3025 IS DISTORTING EXCESSIVELY.
   ELEMENT FINAL_PART-1.3026 IS DISTORTING EXCESSIVELY.
   ELEMENT FINAL_PART-1.3033 IS DISTORTING EXCESSIVELY.
   ELEMENT FINAL_PART-1.3036 IS DISTORTING EXCESSIVELY.
   ELEMENT FINAL_PART-1.3037 IS DISTORTING EXCESSIVELY.
   ELEMENT FINAL_PART-1.3039 IS DISTORTING EXCESSIVELY.
   ELEMENT FINAL_PART-1.3040 IS DISTORTING EXCESSIVELY.
   ELEMENT FINAL_PART-1.3045 IS DISTORTING EXCESSIVELY.
   ELEMENT FINAL_PART-1.3046 IS DISTORTING EXCESSIVELY.
   ELEMENT FINAL_PART-1.3048 IS DISTORTING EXCESSIVELY.
   ELEMENT FINAL_PART-1.3049 IS DISTORTING EXCESSIVELY.
   ELEMENT FINAL_PART-1.3050 IS DISTORTING EXCESSIVELY.
   ELEMENT FINAL_PART-1.3053 IS DISTORTING EXCESSIVELY.
   ELEMENT FINAL_PART-1.3055 IS DISTORTING EXCESSIVELY.
   ELEMENT FINAL_PART-1.3058 IS DISTORTING EXCESSIVELY.
   ELEMENT FINAL_PART-1.3059 IS DISTORTING EXCESSIVELY.
   ELEMENT FINAL_PART-1.3061 IS DISTORTING EXCESSIVELY.
   ELEMENT FINAL_PART-1.3063 IS DISTORTING EXCESSIVELY.
   ELEMENT FINAL_PART-1.3067 IS DISTORTING EXCESSIVELY.
   ELEMENT FINAL_PART-1.3068 IS DISTORTING EXCESSIVELY.
   ELEMENT FINAL_PART-1.3069 IS DISTORTING EXCESSIVELY.
   ELEMENT FINAL_PART-1.3071 IS DISTORTING EXCESSIVELY.
   ELEMENT FINAL_PART-1.3072 IS DISTORTING EXCESSIVELY.
   ELEMENT FINAL_PART-1.4868 IS DISTORTING EXCESSIVELY.
   ELEMENT FINAL_PART-1.4869 IS DISTORTING EXCESSIVELY.
   ELEMENT FINAL_PART-1.4871 IS DISTORTING EXCESSIVELY.
   ELEMENT FINAL_PART-1.4873 IS DISTORTING EXCESSIVELY.
   ELEMENT FINAL_PART-1.4874 IS DISTORTING EXCESSIVELY.
   ELEMENT FINAL_PART-1.4875 IS DISTORTING EXCESSIVELY.
   ELEMENT FINAL_PART-1.4877 IS DISTORTING EXCESSIVELY.
   ELEMENT FINAL_PART-1.4878 IS DISTORTING EXCESSIVELY.
   ELEMENT FINAL_PART-1.4882 IS DISTORTING EXCESSIVELY.
   ELEMENT FINAL_PART-1.4886 IS DISTORTING EXCESSIVELY.
   ELEMENT FINAL_PART-1.4888 IS DISTORTING EXCESSIVELY.
   ELEMENT FINAL_PART-1.4889 IS DISTORTING EXCESSIVELY.
   ELEMENT FINAL_PART-1.4890 IS DISTORTING EXCESSIVELY.
   ELEMENT FINAL_PART-1.4891 IS DISTORTING EXCESSIVELY.
   ELEMENT FINAL_PART-1.4894 IS DISTORTING EXCESSIVELY.
   ELEMENT FINAL_PART-1.4898 IS DISTORTING EXCESSIVELY.
   ELEMENT FINAL_PART-1.4899 IS DISTORTING EXCESSIVELY.
   ELEMENT FINAL_PART-1.4902 IS DISTORTING EXCESSIVELY.
   ELEMENT FINAL_PART-1.4903 IS DISTORTING EXCESSIVELY.
   ELEMENT FINAL_PART-1.4904 IS DISTORTING EXCESSIVELY.
   ELEMENT FINAL_PART-1.4905 IS DISTORTING EXCESSIVELY.
   ELEMENT FINAL_PART-1.4906 IS DISTORTING EXCESSIVELY.
   ELEMENT FINAL_PART-1.4907 IS DISTORTING EXCESSIVELY.
   ELEMENT FINAL_PART-1.4909 IS DISTORTING EXCESSIVELY.
   ELEMENT FINAL_PART-1.4913 IS DISTORTING EXCESSIVELY.
   ELEMENT FINAL_PART-1.4914 IS DISTORTING EXCESSIVELY.
   ELEMENT FINAL_PART-1.4917 IS DISTORTING EXCESSIVELY.
   ELEMENT FINAL_PART-1.4921 IS DISTORTING EXCESSIVELY.
   ELEMENT FINAL_PART-1.4922 IS DISTORTING EXCESSIVELY.
   ELEMENT FINAL_PART-1.4923 IS DISTORTING EXCESSIVELY.
   ELEMENT FINAL_PART-1.4926 IS DISTORTING EXCESSIVELY.
   ELEMENT FINAL_PART-1.4928 IS DISTORTING EXCESSIVELY.
   ELEMENT FINAL_PART-1.4929 IS DISTORTING EXCESSIVELY.
   ELEMENT FINAL_PART-1.4932 IS DISTORTING EXCESSIVELY.
   ELEMENT FINAL_PART-1.4935 IS DISTORTING EXCESSIVELY.
   ELEMENT FINAL_PART-1.4936 IS DISTORTING EXCESSIVELY.
   ELEMENT FINAL_PART-1.4939 IS DISTORTING EXCESSIVELY.
   ELEMENT FINAL_PART-1.4940 IS DISTORTING EXCESSIVELY.
   ELEMENT FINAL_PART-1.4943 IS DISTORTING EXCESSIVELY.
   ELEMENT FINAL_PART-1.4944 IS DISTORTING EXCESSIVELY.
   ELEMENT FINAL_PART-1.4946 IS DISTORTING EXCESSIVELY.
   ELEMENT FINAL_PART-1.4948 IS DISTORTING EXCESSIVELY.
   ELEMENT FINAL_PART-1.4951 IS DISTORTING EXCESSIVELY.
   ELEMENT FINAL_PART-1.4952 IS DISTORTING EXCESSIVELY.
   ELEMENT FINAL_PART-1.4953 IS DISTORTING EXCESSIVELY.
   ELEMENT FINAL_PART-1.4957 IS DISTORTING EXCESSIVELY.
   ELEMENT FINAL_PART-1.4958 IS DISTORTING EXCESSIVELY.
   ELEMENT FINAL_PART-1.4960 IS DISTORTING EXCESSIVELY.
   ELEMENT FINAL_PART-1.4961 IS DISTORTING EXCESSIVELY.
   ELEMENT FINAL_PART-1.4962 IS DISTORTING EXCESSIVELY.
   ELEMENT FINAL_PART-1.4963 IS DISTORTING EXCESSIVELY.
   ELEMENT FINAL_PART-1.4964 IS DISTORTING EXCESSIVELY.
   ELEMENT FINAL_PART-1.4965 IS DISTORTING EXCESSIVELY.
   ELEMENT FINAL_PART-1.4967 IS DISTORTING EXCESSIVELY.
   ELEMENT FINAL_PART-1.4970 IS DISTORTING EXCESSIVELY.
   ELEMENT FINAL_PART-1.4975 IS DISTORTING EXCESSIVELY.
   ELEMENT FINAL_PART-1.4976 IS DISTORTING EXCESSIVELY.
   ELEMENT FINAL_PART-1.4978 IS DISTORTING EXCESSIVELY.
   ELEMENT FINAL_PART-1.4979 IS DISTORTING EXCESSIVELY.
   ELEMENT FINAL_PART-1.4980 IS DISTORTING EXCESSIVELY.
   ELEMENT FINAL_PART-1.4982 IS DISTORTING EXCESSIVELY.
   ELEMENT FINAL_PART-1.4983 IS DISTORTING EXCESSIVELY.
   ELEMENT FINAL_PART-1.4985 IS DISTORTING EXCESSIVELY.
   ELEMENT FINAL_PART-1.4986 IS DISTORTING EXCESSIVELY.
   ELEMENT FINAL_PART-1.4987 IS DISTORTING EXCESSIVELY.
   ELEMENT FINAL_PART-1.4992 IS DISTORTING EXCESSIVELY.
   ELEMENT FINAL_PART-1.4993 IS DISTORTING EXCESSIVELY.
   ELEMENT FINAL_PART-1.4998 IS DISTORTING EXCESSIVELY.
   ELEMENT FINAL_PART-1.4999 IS DISTORTING EXCESSIVELY.
   ELEMENT FINAL_PART-1.5000 IS DISTORTING EXCESSIVELY.
   ELEMENT FINAL_PART-1.5001 IS DISTORTING EXCESSIVELY.
   ELEMENT FINAL_PART-1.5002 IS DISTORTING EXCESSIVELY.
   ELEMENT FINAL_PART-1.5004 IS DISTORTING EXCESSIVELY.
   ELEMENT FINAL_PART-1.5007 IS DISTORTING EXCESSIVELY.
   ELEMENT FINAL_PART-1.5008 IS DISTORTING EXCESSIVELY.
   ELEMENT FINAL_PART-1.5011 IS DISTORTING EXCESSIVELY.
   ELEMENT FINAL_PART-1.5015 IS DISTORTING EXCESSIVELY.
   ELEMENT FINAL_PART-1.5016 IS DISTORTING EXCESSIVELY.
   ELEMENT FINAL_PART-1.5018 IS DISTORTING EXCESSIVELY.
   ELEMENT FINAL_PART-1.5020 IS DISTORTING EXCESSIVELY.
   ELEMENT FINAL_PART-1.5025 IS DISTORTING EXCESSIVELY.
   ELEMENT FINAL_PART-1.5030 IS DISTORTING EXCESSIVELY.
   ELEMENT FINAL_PART-1.5033 IS DISTORTING EXCESSIVELY.
   ELEMENT FINAL_PART-1.5034 IS DISTORTING EXCESSIVELY.
   ELEMENT FINAL_PART-1.5036 IS DISTORTING EXCESSIVELY.
   ELEMENT FINAL_PART-1.5037 IS DISTORTING EXCESSIVELY.
   ELEMENT FINAL_PART-1.5039 IS DISTORTING EXCESSIVELY.
   ELEMENT FINAL_PART-1.5040 IS DISTORTING EXCESSIVELY.
   ELEMENT FINAL_PART-1.5042 IS DISTORTING EXCESSIVELY.
   ELEMENT FINAL_PART-1.5043 IS DISTORTING EXCESSIVELY.
   ELEMENT FINAL_PART-1.5044 IS DISTORTING EXCESSIVELY.
   ELEMENT FINAL_PART-1.5045 IS DISTORTING EXCESSIVELY.
   ELEMENT FINAL_PART-1.5047 IS DISTORTING EXCESSIVELY.
   ELEMENT FINAL_PART-1.5048 IS DISTORTING EXCESSIVELY.
   ELEMENT FINAL_PART-1.5059 IS DISTORTING EXCESSIVELY.
   ELEMENT FINAL_PART-1.5061 IS DISTORTING EXCESSIVELY.
   ELEMENT FINAL_PART-1.5063 IS DISTORTING EXCESSIVELY.
   ELEMENT FINAL_PART-1.5064 IS DISTORTING EXCESSIVELY.
   ELEMENT FINAL_PART-1.5065 IS DISTORTING EXCESSIVELY.
   ELEMENT FINAL_PART-1.5066 IS DISTORTING EXCESSIVELY.
   ELEMENT FINAL_PART-1.5070 IS DISTORTING EXCESSIVELY.
   ELEMENT FINAL_PART-1.5072 IS DISTORTING EXCESSIVELY.
   ELEMENT FINAL_PART-1.5073 IS DISTORTING EXCESSIVELY.
   ELEMENT FINAL_PART-1.5074 IS DISTORTING EXCESSIVELY.
   ELEMENT FINAL_PART-1.5075 IS DISTORTING EXCESSIVELY.
   ELEMENT FINAL_PART-1.5076 IS DISTORTING EXCESSIVELY.
   ELEMENT FINAL_PART-1.5077 IS DISTORTING EXCESSIVELY.
   ELEMENT FINAL_PART-1.5078 IS DISTORTING EXCESSIVELY.
   ELEMENT FINAL_PART-1.5083 IS DISTORTING EXCESSIVELY.
   ELEMENT FINAL_PART-1.5084 IS DISTORTING EXCESSIVELY.
   ELEMENT FINAL_PART-1.5088 IS DISTORTING EXCESSIVELY.
   ELEMENT FINAL_PART-1.5090 IS DISTORTING EXCESSIVELY.
   ELEMENT FINAL_PART-1.5092 IS DISTORTING EXCESSIVELY.
   ELEMENT FINAL_PART-1.5093 IS DISTORTING EXCESSIVELY.
   ELEMENT FINAL_PART-1.5097 IS DISTORTING EXCESSIVELY.
   ELEMENT FINAL_PART-1.5101 IS DISTORTING EXCESSIVELY.
   ELEMENT FINAL_PART-1.5103 IS DISTORTING EXCESSIVELY.
   ELEMENT FINAL_PART-1.5105 IS DISTORTING EXCESSIVELY.
   ELEMENT FINAL_PART-1.5106 IS DISTORTING EXCESSIVELY.
   ELEMENT FINAL_PART-1.5107 IS DISTORTING EXCESSIVELY.
   ELEMENT FINAL_PART-1.5111 IS DISTORTING EXCESSIVELY.
   ELEMENT FINAL_PART-1.5112 IS DISTORTING EXCESSIVELY.
   ELEMENT FINAL_PART-1.5113 IS DISTORTING EXCESSIVELY.
   ELEMENT FINAL_PART-1.5114 IS DISTORTING EXCESSIVELY.
   ELEMENT FINAL_PART-1.5116 IS DISTORTING EXCESSIVELY.
   ELEMENT FINAL_PART-1.5117 IS DISTORTING EXCESSIVELY.
   ELEMENT FINAL_PART-1.5118 IS DISTORTING EXCESSIVELY.
   ELEMENT FINAL_PART-1.5119 IS DISTORTING EXCESSIVELY.
   ELEMENT FINAL_PART-1.5120 IS DISTORTING EXCESSIVELY.
   ELEMENT FINAL_PART-1.6657 IS DISTORTING EXCESSIVELY.
   ELEMENT FINAL_PART-1.6658 IS DISTORTING EXCESSIVELY.
   ELEMENT FINAL_PART-1.6660 IS DISTORTING EXCESSIVELY.
   ELEMENT FINAL_PART-1.6662 IS DISTORTING EXCESSIVELY.
   ELEMENT FINAL_PART-1.6664 IS DISTORTING EXCESSIVELY.
   ELEMENT FINAL_PART-1.6667 IS DISTORTING EXCESSIVELY.
   ELEMENT FINAL_PART-1.6668 IS DISTORTING EXCESSIVELY.
   ELEMENT FINAL_PART-1.6669 IS DISTORTING EXCESSIVELY.
   ELEMENT FINAL_PART-1.6674 IS DISTORTING EXCESSIVELY.
   ELEMENT FINAL_PART-1.6676 IS DISTORTING EXCESSIVELY.
   ELEMENT FINAL_PART-1.6680 IS DISTORTING EXCESSIVELY.
   ELEMENT FINAL_PART-1.6681 IS DISTORTING EXCESSIVELY.
   ELEMENT FINAL_PART-1.6682 IS DISTORTING EXCESSIVELY.
   ELEMENT FINAL_PART-1.6683 IS DISTORTING EXCESSIVELY.
   ELEMENT FINAL_PART-1.6684 IS DISTORTING EXCESSIVELY.
   ELEMENT FINAL_PART-1.6685 IS DISTORTING EXCESSIVELY.
   ELEMENT FINAL_PART-1.6687 IS DISTORTING EXCESSIVELY.
   ELEMENT FINAL_PART-1.6688 IS DISTORTING EXCESSIVELY.
   ELEMENT FINAL_PART-1.6689 IS DISTORTING EXCESSIVELY.
   ELEMENT FINAL_PART-1.6690 IS DISTORTING EXCESSIVELY.
   ELEMENT FINAL_PART-1.6695 IS DISTORTING EXCESSIVELY.
   ELEMENT FINAL_PART-1.6697 IS DISTORTING EXCESSIVELY.
   ELEMENT FINAL_PART-1.6699 IS DISTORTING EXCESSIVELY.
   ELEMENT FINAL_PART-1.6702 IS DISTORTING EXCESSIVELY.
   ELEMENT FINAL_PART-1.6706 IS DISTORTING EXCESSIVELY.
   ELEMENT FINAL_PART-1.6709 IS DISTORTING EXCESSIVELY.
   ELEMENT FINAL_PART-1.6710 IS DISTORTING EXCESSIVELY.
   ELEMENT FINAL_PART-1.6712 IS DISTORTING EXCESSIVELY.
   ELEMENT FINAL_PART-1.6714 IS DISTORTING EXCESSIVELY.
   ELEMENT FINAL_PART-1.6717 IS DISTORTING EXCESSIVELY.
   ELEMENT FINAL_PART-1.6718 IS DISTORTING EXCESSIVELY.
   ELEMENT FINAL_PART-1.6720 IS DISTORTING EXCESSIVELY.
   ELEMENT FINAL_PART-1.6723 IS DISTORTING EXCESSIVELY.
   ELEMENT FINAL_PART-1.6725 IS DISTORTING EXCESSIVELY.
   ELEMENT FINAL_PART-1.6726 IS DISTORTING EXCESSIVELY.
   ELEMENT FINAL_PART-1.6727 IS DISTORTING EXCESSIVELY.
   ELEMENT FINAL_PART-1.6728 IS DISTORTING EXCESSIVELY.
   ELEMENT FINAL_PART-1.6732 IS DISTORTING EXCESSIVELY.
   ELEMENT FINAL_PART-1.6733 IS DISTORTING EXCESSIVELY.
   ELEMENT FINAL_PART-1.6734 IS DISTORTING EXCESSIVELY.
   ELEMENT FINAL_PART-1.6735 IS DISTORTING EXCESSIVELY.
   ELEMENT FINAL_PART-1.6736 IS DISTORTING EXCESSIVELY.
   ELEMENT FINAL_PART-1.6739 IS DISTORTING EXCESSIVELY.
   ELEMENT FINAL_PART-1.6740 IS DISTORTING EXCESSIVELY.
   ELEMENT FINAL_PART-1.6741 IS DISTORTING EXCESSIVELY.
   ELEMENT FINAL_PART-1.6745 IS DISTORTING EXCESSIVELY.
   ELEMENT FINAL_PART-1.6746 IS DISTORTING EXCESSIVELY.
   ELEMENT FINAL_PART-1.6747 IS DISTORTING EXCESSIVELY.
   ELEMENT FINAL_PART-1.6748 IS DISTORTING EXCESSIVELY.
   ELEMENT FINAL_PART-1.6749 IS DISTORTING EXCESSIVELY.
   ELEMENT FINAL_PART-1.6751 IS DISTORTING EXCESSIVELY.
   ELEMENT FINAL_PART-1.6754 IS DISTORTING EXCESSIVELY.
   ELEMENT FINAL_PART-1.6756 IS DISTORTING EXCESSIVELY.
   ELEMENT FINAL_PART-1.6759 IS DISTORTING EXCESSIVELY.
   ELEMENT FINAL_PART-1.6760 IS DISTORTING EXCESSIVELY.
   ELEMENT FINAL_PART-1.6764 IS DISTORTING EXCESSIVELY.
   ELEMENT FINAL_PART-1.6765 IS DISTORTING EXCESSIVELY.
   ELEMENT FINAL_PART-1.6766 IS DISTORTING EXCESSIVELY.
   ELEMENT FINAL_PART-1.6768 IS DISTORTING EXCESSIVELY.
   ELEMENT FINAL_PART-1.6770 IS DISTORTING EXCESSIVELY.
   ELEMENT FINAL_PART-1.6772 IS DISTORTING EXCESSIVELY.
   ELEMENT FINAL_PART-1.6774 IS DISTORTING EXCESSIVELY.
   ELEMENT FINAL_PART-1.6777 IS DISTORTING EXCESSIVELY.
   ELEMENT FINAL_PART-1.6779 IS DISTORTING EXCESSIVELY.
   ELEMENT FINAL_PART-1.6780 IS DISTORTING EXCESSIVELY.
   ELEMENT FINAL_PART-1.6781 IS DISTORTING EXCESSIVELY.
   ELEMENT FINAL_PART-1.6783 IS DISTORTING EXCESSIVELY.
   ELEMENT FINAL_PART-1.6785 IS DISTORTING EXCESSIVELY.
   ELEMENT FINAL_PART-1.6787 IS DISTORTING EXCESSIVELY.
   ELEMENT FINAL_PART-1.6788 IS DISTORTING EXCESSIVELY.
   ELEMENT FINAL_PART-1.6789 IS DISTORTING EXCESSIVELY.
   ELEMENT FINAL_PART-1.6790 IS DISTORTING EXCESSIVELY.
   ELEMENT FINAL_PART-1.6791 IS DISTORTING EXCESSIVELY.
   ELEMENT FINAL_PART-1.6793 IS DISTORTING EXCESSIVELY.
   ELEMENT FINAL_PART-1.6794 IS DISTORTING EXCESSIVELY.
   ELEMENT FINAL_PART-1.6803 IS DISTORTING EXCESSIVELY.
   ELEMENT FINAL_PART-1.6806 IS DISTORTING EXCESSIVELY.
   ELEMENT FINAL_PART-1.6807 IS DISTORTING EXCESSIVELY.
   ELEMENT FINAL_PART-1.6809 IS DISTORTING EXCESSIVELY.
   ELEMENT FINAL_PART-1.6812 IS DISTORTING EXCESSIVELY.
   ELEMENT FINAL_PART-1.6815 IS DISTORTING EXCESSIVELY.
   ELEMENT FINAL_PART-1.6818 IS DISTORTING EXCESSIVELY.
   ELEMENT FINAL_PART-1.6819 IS DISTORTING EXCESSIVELY.
   ELEMENT FINAL_PART-1.6821 IS DISTORTING EXCESSIVELY.
   ELEMENT FINAL_PART-1.6822 IS DISTORTING EXCESSIVELY.
   ELEMENT FINAL_PART-1.6824 IS DISTORTING EXCESSIVELY.
   ELEMENT FINAL_PART-1.6826 IS DISTORTING EXCESSIVELY.
   ELEMENT FINAL_PART-1.6827 IS DISTORTING EXCESSIVELY.
   ELEMENT FINAL_PART-1.6829 IS DISTORTING EXCESSIVELY.
   ELEMENT FINAL_PART-1.6830 IS DISTORTING EXCESSIVELY.
   ELEMENT FINAL_PART-1.6831 IS DISTORTING EXCESSIVELY.
   ELEMENT FINAL_PART-1.6832 IS DISTORTING EXCESSIVELY.
   ELEMENT FINAL_PART-1.6835 IS DISTORTING EXCESSIVELY.
   ELEMENT FINAL_PART-1.6837 IS DISTORTING EXCESSIVELY.
   ELEMENT FINAL_PART-1.6838 IS DISTORTING EXCESSIVELY.
   ELEMENT FINAL_PART-1.6841 IS DISTORTING EXCESSIVELY.
   ELEMENT FINAL_PART-1.6842 IS DISTORTING EXCESSIVELY.
   ELEMENT FINAL_PART-1.6846 IS DISTORTING EXCESSIVELY.
   ELEMENT FINAL_PART-1.6850 IS DISTORTING EXCESSIVELY.
   ELEMENT FINAL_PART-1.6851 IS DISTORTING EXCESSIVELY.
   ELEMENT FINAL_PART-1.6852 IS DISTORTING EXCESSIVELY.
   ELEMENT FINAL_PART-1.6855 IS DISTORTING EXCESSIVELY.
   ELEMENT FINAL_PART-1.6861 IS DISTORTING EXCESSIVELY.
   ELEMENT FINAL_PART-1.6863 IS DISTORTING EXCESSIVELY.
   ELEMENT FINAL_PART-1.6865 IS DISTORTING EXCESSIVELY.
   ELEMENT FINAL_PART-1.6866 IS DISTORTING EXCESSIVELY.
   ELEMENT FINAL_PART-1.6867 IS DISTORTING EXCESSIVELY.
   ELEMENT FINAL_PART-1.6868 IS DISTORTING EXCESSIVELY.
   ELEMENT FINAL_PART-1.6869 IS DISTORTING EXCESSIVELY.
   ELEMENT FINAL_PART-1.6870 IS DISTORTING EXCESSIVELY.
   ELEMENT FINAL_PART-1.6871 IS DISTORTING EXCESSIVELY.
   ELEMENT FINAL_PART-1.6872 IS DISTORTING EXCESSIVELY.
   ELEMENT FINAL_PART-1.6873 IS DISTORTING EXCESSIVELY.
   ELEMENT FINAL_PART-1.6875 IS DISTORTING EXCESSIVELY.
   ELEMENT FINAL_PART-1.6876 IS DISTORTING EXCESSIVELY.
   ELEMENT FINAL_PART-1.6882 IS DISTORTING EXCESSIVELY.
   ELEMENT FINAL_PART-1.6883 IS DISTORTING EXCESSIVELY.
   ELEMENT FINAL_PART-1.6884 IS DISTORTING EXCESSIVELY.
   ELEMENT FINAL_PART-1.6885 IS DISTORTING EXCESSIVELY.
   ELEMENT FINAL_PART-1.6887 IS DISTORTING EXCESSIVELY.
   ELEMENT FINAL_PART-1.6889 IS DISTORTING EXCESSIVELY.
   ELEMENT FINAL_PART-1.6891 IS DISTORTING EXCESSIVELY.
   ELEMENT FINAL_PART-1.6892 IS DISTORTING EXCESSIVELY.
   ELEMENT FINAL_PART-1.6894 IS DISTORTING EXCESSIVELY.
   ELEMENT FINAL_PART-1.6896 IS DISTORTING EXCESSIVELY.
   ELEMENT FINAL_PART-1.6897 IS DISTORTING EXCESSIVELY.
   ELEMENT FINAL_PART-1.6898 IS DISTORTING EXCESSIVELY.
   ELEMENT FINAL_PART-1.6900 IS DISTORTING EXCESSIVELY.
   ELEMENT FINAL_PART-1.6901 IS DISTORTING EXCESSIVELY.
   ELEMENT FINAL_PART-1.6902 IS DISTORTING EXCESSIVELY.
   ELEMENT FINAL_PART-1.6903 IS DISTORTING EXCESSIVELY.
   ELEMENT FINAL_PART-1.6905 IS DISTORTING EXCESSIVELY.
   ELEMENT FINAL_PART-1.6907 IS DISTORTING EXCESSIVELY.
   ELEMENT FINAL_PART-1.6910 IS DISTORTING EXCESSIVELY.
   ELEMENT FINAL_PART-1.6911 IS DISTORTING EXCESSIVELY.
   ELEMENT FINAL_PART-1.6912 IS DISTORTING EXCESSIVELY.
   ELEMENT FINAL_PART-1.9219 IS DISTORTING EXCESSIVELY.
   ELEMENT FINAL_PART-1.9222 IS DISTORTING EXCESSIVELY.
   ELEMENT FINAL_PART-1.9225 IS DISTORTING EXCESSIVELY.
   ELEMENT FINAL_PART-1.9226 IS DISTORTING EXCESSIVELY.
   ELEMENT FINAL_PART-1.9230 IS DISTORTING EXCESSIVELY.
   ELEMENT FINAL_PART-1.9231 IS DISTORTING EXCESSIVELY.
   ELEMENT FINAL_PART-1.9232 IS DISTORTING EXCESSIVELY.
   ELEMENT FINAL_PART-1.9235 IS DISTORTING EXCESSIVELY.
   ELEMENT FINAL_PART-1.9237 IS DISTORTING EXCESSIVELY.
   ELEMENT FINAL_PART-1.9238 IS DISTORTING EXCESSIVELY.
   ELEMENT FINAL_PART-1.9239 IS DISTORTING EXCESSIVELY.
   ELEMENT FINAL_PART-1.9240 IS DISTORTING EXCESSIVELY.
   ELEMENT FINAL_PART-1.9243 IS DISTORTING EXCESSIVELY.
   ELEMENT FINAL_PART-1.9247 IS DISTORTING EXCESSIVELY.
   ELEMENT FINAL_PART-1.9251 IS DISTORTING EXCESSIVELY.
   ELEMENT FINAL_PART-1.9252 IS DISTORTING EXCESSIVELY.
   ELEMENT FINAL_PART-1.9253 IS DISTORTING EXCESSIVELY.
   ELEMENT FINAL_PART-1.9254 IS DISTORTING EXCESSIVELY.
   ELEMENT FINAL_PART-1.9255 IS DISTORTING EXCESSIVELY.
   ELEMENT FINAL_PART-1.9256 IS DISTORTING EXCESSIVELY.
   ELEMENT FINAL_PART-1.9257 IS DISTORTING EXCESSIVELY.
   ELEMENT FINAL_PART-1.9258 IS DISTORTING EXCESSIVELY.
   ELEMENT FINAL_PART-1.9261 IS DISTORTING EXCESSIVELY.
   ELEMENT FINAL_PART-1.9265 IS DISTORTING EXCESSIVELY.
   ELEMENT FINAL_PART-1.9266 IS DISTORTING EXCESSIVELY.
   ELEMENT FINAL_PART-1.9267 IS DISTORTING EXCESSIVELY.
   ELEMENT FINAL_PART-1.9268 IS DISTORTING EXCESSIVELY.
   ELEMENT FINAL_PART-1.9270 IS DISTORTING EXCESSIVELY.
   ELEMENT FINAL_PART-1.9271 IS DISTORTING EXCESSIVELY.
   ELEMENT FINAL_PART-1.9272 IS DISTORTING EXCESSIVELY.
   ELEMENT FINAL_PART-1.9273 IS DISTORTING EXCESSIVELY.
   ELEMENT FINAL_PART-1.9274 IS DISTORTING EXCESSIVELY.
   ELEMENT FINAL_PART-1.9277 IS DISTORTING EXCESSIVELY.
   ELEMENT FINAL_PART-1.9281 IS DISTORTING EXCESSIVELY.
   ELEMENT FINAL_PART-1.9282 IS DISTORTING EXCESSIVELY.
   ELEMENT FINAL_PART-1.9283 IS DISTORTING EXCESSIVELY.
   ELEMENT FINAL_PART-1.9286 IS DISTORTING EXCESSIVELY.
   ELEMENT FINAL_PART-1.9288 IS DISTORTING EXCESSIVELY.
   ELEMENT FINAL_PART-1.9289 IS DISTORTING EXCESSIVELY.
   ELEMENT FINAL_PART-1.9299 IS DISTORTING EXCESSIVELY.
   ELEMENT FINAL_PART-1.9300 IS DISTORTING EXCESSIVELY.
   ELEMENT FINAL_PART-1.9301 IS DISTORTING EXCESSIVELY.
   ELEMENT FINAL_PART-1.9302 IS DISTORTING EXCESSIVELY.
   ELEMENT FINAL_PART-1.9304 IS DISTORTING EXCESSIVELY.
   ELEMENT FINAL_PART-1.9306 IS DISTORTING EXCESSIVELY.
   ELEMENT FINAL_PART-1.9307 IS DISTORTING EXCESSIVELY.
   ELEMENT FINAL_PART-1.9309 IS DISTORTING EXCESSIVELY.
   ELEMENT FINAL_PART-1.9311 IS DISTORTING EXCESSIVELY.
   ELEMENT FINAL_PART-1.9313 IS DISTORTING EXCESSIVELY.
   ELEMENT FINAL_PART-1.9316 IS DISTORTING EXCESSIVELY.
   ELEMENT FINAL_PART-1.9318 IS DISTORTING EXCESSIVELY.
   ELEMENT FINAL_PART-1.9319 IS DISTORTING EXCESSIVELY.
   ELEMENT FINAL_PART-1.9321 IS DISTORTING EXCESSIVELY.
   ELEMENT FINAL_PART-1.9324 IS DISTORTING EXCESSIVELY.
   ELEMENT FINAL_PART-1.9329 IS DISTORTING EXCESSIVELY.
   ELEMENT FINAL_PART-1.9333 IS DISTORTING EXCESSIVELY.
   ELEMENT FINAL_PART-1.9337 IS DISTORTING EXCESSIVELY.
   ELEMENT FINAL_PART-1.9338 IS DISTORTING EXCESSIVELY.
   ELEMENT FINAL_PART-1.9340 IS DISTORTING EXCESSIVELY.
   ELEMENT FINAL_PART-1.9342 IS DISTORTING EXCESSIVELY.
   ELEMENT FINAL_PART-1.9343 IS DISTORTING EXCESSIVELY.
   ELEMENT FINAL_PART-1.9345 IS DISTORTING EXCESSIVELY.
   ELEMENT FINAL_PART-1.9346 IS DISTORTING EXCESSIVELY.
   ELEMENT FINAL_PART-1.9347 IS DISTORTING EXCESSIVELY.
   ELEMENT FINAL_PART-1.9348 IS DISTORTING EXCESSIVELY.
   ELEMENT FINAL_PART-1.9349 IS DISTORTING EXCESSIVELY.
   ELEMENT FINAL_PART-1.9353 IS DISTORTING EXCESSIVELY.
   ELEMENT FINAL_PART-1.9355 IS DISTORTING EXCESSIVELY.
   ELEMENT FINAL_PART-1.9356 IS DISTORTING EXCESSIVELY.
   ELEMENT FINAL_PART-1.9358 IS DISTORTING EXCESSIVELY.
   ELEMENT FINAL_PART-1.9360 IS DISTORTING EXCESSIVELY.
   ELEMENT FINAL_PART-1.9362 IS DISTORTING EXCESSIVELY.
   ELEMENT FINAL_PART-1.9363 IS DISTORTING EXCESSIVELY.
   ELEMENT FINAL_PART-1.9366 IS DISTORTING EXCESSIVELY.
   ELEMENT FINAL_PART-1.9367 IS DISTORTING EXCESSIVELY.
   ELEMENT FINAL_PART-1.9370 IS DISTORTING EXCESSIVELY.
   ELEMENT FINAL_PART-1.9372 IS DISTORTING EXCESSIVELY.
   ELEMENT FINAL_PART-1.9373 IS DISTORTING EXCESSIVELY.
   ELEMENT FINAL_PART-1.9374 IS DISTORTING EXCESSIVELY.
   ELEMENT FINAL_PART-1.9375 IS DISTORTING EXCESSIVELY.
   ELEMENT FINAL_PART-1.9376 IS DISTORTING EXCESSIVELY.
   ELEMENT FINAL_PART-1.9379 IS DISTORTING EXCESSIVELY.
   ELEMENT FINAL_PART-1.9384 IS DISTORTING EXCESSIVELY.
   ELEMENT FINAL_PART-1.9385 IS DISTORTING EXCESSIVELY.
   ELEMENT FINAL_PART-1.9386 IS DISTORTING EXCESSIVELY.
   ELEMENT FINAL_PART-1.9387 IS DISTORTING EXCESSIVELY.
   ELEMENT FINAL_PART-1.9389 IS DISTORTING EXCESSIVELY.
   ELEMENT FINAL_PART-1.9395 IS DISTORTING EXCESSIVELY.
   ELEMENT FINAL_PART-1.9396 IS DISTORTING EXCESSIVELY.
   ELEMENT FINAL_PART-1.9397 IS DISTORTING EXCESSIVELY.
   ELEMENT FINAL_PART-1.9398 IS DISTORTING EXCESSIVELY.
   ELEMENT FINAL_PART-1.9399 IS DISTORTING EXCESSIVELY.
   ELEMENT FINAL_PART-1.9400 IS DISTORTING EXCESSIVELY.
   ELEMENT FINAL_PART-1.9401 IS DISTORTING EXCESSIVELY.
   ELEMENT FINAL_PART-1.9403 IS DISTORTING EXCESSIVELY.
   ELEMENT FINAL_PART-1.9407 IS DISTORTING EXCESSIVELY.
   ELEMENT FINAL_PART-1.9408 IS DISTORTING EXCESSIVELY.
   ELEMENT FINAL_PART-1.9409 IS DISTORTING EXCESSIVELY.
   ELEMENT FINAL_PART-1.9411 IS DISTORTING EXCESSIVELY.
   ELEMENT FINAL_PART-1.9413 IS DISTORTING EXCESSIVELY.
   ELEMENT FINAL_PART-1.9415 IS DISTORTING EXCESSIVELY.
   ELEMENT FINAL_PART-1.9417 IS DISTORTING EXCESSIVELY.
   ELEMENT FINAL_PART-1.9418 IS DISTORTING EXCESSIVELY.
   ELEMENT FINAL_PART-1.9419 IS DISTORTING EXCESSIVELY.
   ELEMENT FINAL_PART-1.9427 IS DISTORTING EXCESSIVELY.
   ELEMENT FINAL_PART-1.9428 IS DISTORTING EXCESSIVELY.
   ELEMENT FINAL_PART-1.9429 IS DISTORTING EXCESSIVELY.
   ELEMENT FINAL_PART-1.9430 IS DISTORTING EXCESSIVELY.
   ELEMENT FINAL_PART-1.9431 IS DISTORTING EXCESSIVELY.
   ELEMENT FINAL_PART-1.9432 IS DISTORTING EXCESSIVELY.
   ELEMENT FINAL_PART-1.9433 IS DISTORTING EXCESSIVELY.
   ELEMENT FINAL_PART-1.9439 IS DISTORTING EXCESSIVELY.
   ELEMENT FINAL_PART-1.9442 IS DISTORTING EXCESSIVELY.
   ELEMENT FINAL_PART-1.9444 IS DISTORTING EXCESSIVELY.
   ELEMENT FINAL_PART-1.9446 IS DISTORTING EXCESSIVELY.
   ELEMENT FINAL_PART-1.9448 IS DISTORTING EXCESSIVELY.
   ELEMENT FINAL_PART-1.9449 IS DISTORTING EXCESSIVELY.
   ELEMENT FINAL_PART-1.9450 IS DISTORTING EXCESSIVELY.
   ELEMENT FINAL_PART-1.9453 IS DISTORTING EXCESSIVELY.
   ELEMENT FINAL_PART-1.9455 IS DISTORTING EXCESSIVELY.
   ELEMENT FINAL_PART-1.9456 IS DISTORTING EXCESSIVELY.
   ELEMENT FINAL_PART-1.9457 IS DISTORTING EXCESSIVELY.
   ELEMENT FINAL_PART-1.9459 IS DISTORTING EXCESSIVELY.
   ELEMENT FINAL_PART-1.9461 IS DISTORTING EXCESSIVELY.
   ELEMENT FINAL_PART-1.9462 IS DISTORTING EXCESSIVELY.
   ELEMENT FINAL_PART-1.9464 IS DISTORTING EXCESSIVELY.
   ELEMENT FINAL_PART-1.9466 IS DISTORTING EXCESSIVELY.
   ELEMENT FINAL_PART-1.9467 IS DISTORTING EXCESSIVELY.
   ELEMENT FINAL_PART-1.9468 IS DISTORTING EXCESSIVELY.
   ELEMENT FINAL_PART-1.9470 IS DISTORTING EXCESSIVELY.
   ELEMENT FINAL_PART-1.9471 IS DISTORTING EXCESSIVELY.
   ELEMENT FINAL_PART-1.11778 IS DISTORTING EXCESSIVELY.
   ELEMENT FINAL_PART-1.11779 IS DISTORTING EXCESSIVELY.
   ELEMENT FINAL_PART-1.11784 IS DISTORTING EXCESSIVELY.
   ELEMENT FINAL_PART-1.11785 IS DISTORTING EXCESSIVELY.
   ELEMENT FINAL_PART-1.11786 IS DISTORTING EXCESSIVELY.
   ELEMENT FINAL_PART-1.11789 IS DISTORTING EXCESSIVELY.
   ELEMENT FINAL_PART-1.11790 IS DISTORTING EXCESSIVELY.
   ELEMENT FINAL_PART-1.11791 IS DISTORTING EXCESSIVELY.
   ELEMENT FINAL_PART-1.11793 IS DISTORTING EXCESSIVELY.
   ELEMENT FINAL_PART-1.11794 IS DISTORTING EXCESSIVELY.
   ELEMENT FINAL_PART-1.11798 IS DISTORTING EXCESSIVELY.
   ELEMENT FINAL_PART-1.11801 IS DISTORTING EXCESSIVELY.
   ELEMENT FINAL_PART-1.11802 IS DISTORTING EXCESSIVELY.
   ELEMENT FINAL_PART-1.11804 IS DISTORTING EXCESSIVELY.
   ELEMENT FINAL_PART-1.11805 IS DISTORTING EXCESSIVELY.
   ELEMENT FINAL_PART-1.11806 IS DISTORTING EXCESSIVELY.
   ELEMENT FINAL_PART-1.11809 IS DISTORTING EXCESSIVELY.
   ELEMENT FINAL_PART-1.11812 IS DISTORTING EXCESSIVELY.
   ELEMENT FINAL_PART-1.11813 IS DISTORTING EXCESSIVELY.
   ELEMENT FINAL_PART-1.11817 IS DISTORTING EXCESSIVELY.
   ELEMENT FINAL_PART-1.11818 IS DISTORTING EXCESSIVELY.
   ELEMENT FINAL_PART-1.11819 IS DISTORTING EXCESSIVELY.
   ELEMENT FINAL_PART-1.11822 IS DISTORTING EXCESSIVELY.
   ELEMENT FINAL_PART-1.11827 IS DISTORTING EXCESSIVELY.
   ELEMENT FINAL_PART-1.11828 IS DISTORTING EXCESSIVELY.
   ELEMENT FINAL_PART-1.11833 IS DISTORTING EXCESSIVELY.
   ELEMENT FINAL_PART-1.11834 IS DISTORTING EXCESSIVELY.
   ELEMENT FINAL_PART-1.11836 IS DISTORTING EXCESSIVELY.
   ELEMENT FINAL_PART-1.11839 IS DISTORTING EXCESSIVELY.
   ELEMENT FINAL_PART-1.11840 IS DISTORTING EXCESSIVELY.
   ELEMENT FINAL_PART-1.11841 IS DISTORTING EXCESSIVELY.
   ELEMENT FINAL_PART-1.11842 IS DISTORTING EXCESSIVELY.
   ELEMENT FINAL_PART-1.11845 IS DISTORTING EXCESSIVELY.
   ELEMENT FINAL_PART-1.11847 IS DISTORTING EXCESSIVELY.
   ELEMENT FINAL_PART-1.11849 IS DISTORTING EXCESSIVELY.
   ELEMENT FINAL_PART-1.11851 IS DISTORTING EXCESSIVELY.
   ELEMENT FINAL_PART-1.11852 IS DISTORTING EXCESSIVELY.
   ELEMENT FINAL_PART-1.11857 IS DISTORTING EXCESSIVELY.
   ELEMENT FINAL_PART-1.11858 IS DISTORTING EXCESSIVELY.
   ELEMENT FINAL_PART-1.11859 IS DISTORTING EXCESSIVELY.
   ELEMENT FINAL_PART-1.11860 IS DISTORTING EXCESSIVELY.
   ELEMENT FINAL_PART-1.11862 IS DISTORTING EXCESSIVELY.
   ELEMENT FINAL_PART-1.11865 IS DISTORTING EXCESSIVELY.
   ELEMENT FINAL_PART-1.11867 IS DISTORTING EXCESSIVELY.
   ELEMENT FINAL_PART-1.11869 IS DISTORTING EXCESSIVELY.
   ELEMENT FINAL_PART-1.11870 IS DISTORTING EXCESSIVELY.
   ELEMENT FINAL_PART-1.11873 IS DISTORTING EXCESSIVELY.
   ELEMENT FINAL_PART-1.11875 IS DISTORTING EXCESSIVELY.
   ELEMENT FINAL_PART-1.11877 IS DISTORTING EXCESSIVELY.
   ELEMENT FINAL_PART-1.11878 IS DISTORTING EXCESSIVELY.
   ELEMENT FINAL_PART-1.11880 IS DISTORTING EXCESSIVELY.
   ELEMENT FINAL_PART-1.11881 IS DISTORTING EXCESSIVELY.
   ELEMENT FINAL_PART-1.11882 IS DISTORTING EXCESSIVELY.
   ELEMENT FINAL_PART-1.11884 IS DISTORTING EXCESSIVELY.
   ELEMENT FINAL_PART-1.11885 IS DISTORTING EXCESSIVELY.
   ELEMENT FINAL_PART-1.11886 IS DISTORTING EXCESSIVELY.
   ELEMENT FINAL_PART-1.11887 IS DISTORTING EXCESSIVELY.
   ELEMENT FINAL_PART-1.11888 IS DISTORTING EXCESSIVELY.
   ELEMENT FINAL_PART-1.11890 IS DISTORTING EXCESSIVELY.
   ELEMENT FINAL_PART-1.11892 IS DISTORTING EXCESSIVELY.
   ELEMENT FINAL_PART-1.11894 IS DISTORTING EXCESSIVELY.
   ELEMENT FINAL_PART-1.11895 IS DISTORTING EXCESSIVELY.
   ELEMENT FINAL_PART-1.11897 IS DISTORTING EXCESSIVELY.
   ELEMENT FINAL_PART-1.11898 IS DISTORTING EXCESSIVELY.
   ELEMENT FINAL_PART-1.11899 IS DISTORTING EXCESSIVELY.
   ELEMENT FINAL_PART-1.11902 IS DISTORTING EXCESSIVELY.
   ELEMENT FINAL_PART-1.11903 IS DISTORTING EXCESSIVELY.
   ELEMENT FINAL_PART-1.11904 IS DISTORTING EXCESSIVELY.
   ELEMENT FINAL_PART-1.11909 IS DISTORTING EXCESSIVELY.
   ELEMENT FINAL_PART-1.11911 IS DISTORTING EXCESSIVELY.
   ELEMENT FINAL_PART-1.11913 IS DISTORTING EXCESSIVELY.
   ELEMENT FINAL_PART-1.11921 IS DISTORTING EXCESSIVELY.
   ELEMENT FINAL_PART-1.11922 IS DISTORTING EXCESSIVELY.
   ELEMENT FINAL_PART-1.11923 IS DISTORTING EXCESSIVELY.
   ELEMENT FINAL_PART-1.11924 IS DISTORTING EXCESSIVELY.
   ELEMENT FINAL_PART-1.11926 IS DISTORTING EXCESSIVELY.
   ELEMENT FINAL_PART-1.11928 IS DISTORTING EXCESSIVELY.
   ELEMENT FINAL_PART-1.11929 IS DISTORTING EXCESSIVELY.
   ELEMENT FINAL_PART-1.11931 IS DISTORTING EXCESSIVELY.
   ELEMENT FINAL_PART-1.11933 IS DISTORTING EXCESSIVELY.
   ELEMENT FINAL_PART-1.11935 IS DISTORTING EXCESSIVELY.
   ELEMENT FINAL_PART-1.11936 IS DISTORTING EXCESSIVELY.
   ELEMENT FINAL_PART-1.11938 IS DISTORTING EXCESSIVELY.
   ELEMENT FINAL_PART-1.11939 IS DISTORTING EXCESSIVELY.
   ELEMENT FINAL_PART-1.11940 IS DISTORTING EXCESSIVELY.
   ELEMENT FINAL_PART-1.11942 IS DISTORTING EXCESSIVELY.
   ELEMENT FINAL_PART-1.11948 IS DISTORTING EXCESSIVELY.
   ELEMENT FINAL_PART-1.11949 IS DISTORTING EXCESSIVELY.
   ELEMENT FINAL_PART-1.11951 IS DISTORTING EXCESSIVELY.
   ELEMENT FINAL_PART-1.11953 IS DISTORTING EXCESSIVELY.
   ELEMENT FINAL_PART-1.11955 IS DISTORTING EXCESSIVELY.
   ELEMENT FINAL_PART-1.11956 IS DISTORTING EXCESSIVELY.
   ELEMENT FINAL_PART-1.11957 IS DISTORTING EXCESSIVELY.
   ELEMENT FINAL_PART-1.11960 IS DISTORTING EXCESSIVELY.
   ELEMENT FINAL_PART-1.11962 IS DISTORTING EXCESSIVELY.
   ELEMENT FINAL_PART-1.11965 IS DISTORTING EXCESSIVELY.
   ELEMENT FINAL_PART-1.11967 IS DISTORTING EXCESSIVELY.
   ELEMENT FINAL_PART-1.11968 IS DISTORTING EXCESSIVELY.
   ELEMENT FINAL_PART-1.11973 IS DISTORTING EXCESSIVELY.
   ELEMENT FINAL_PART-1.11976 IS DISTORTING EXCESSIVELY.
   ELEMENT FINAL_PART-1.11980 IS DISTORTING EXCESSIVELY.
   ELEMENT FINAL_PART-1.11981 IS DISTORTING EXCESSIVELY.
   ELEMENT FINAL_PART-1.11983 IS DISTORTING EXCESSIVELY.
   ELEMENT FINAL_PART-1.11984 IS DISTORTING EXCESSIVELY.
   ELEMENT FINAL_PART-1.11986 IS DISTORTING EXCESSIVELY.
   ELEMENT FINAL_PART-1.11987 IS DISTORTING EXCESSIVELY.
   ELEMENT FINAL_PART-1.11990 IS DISTORTING EXCESSIVELY.
   ELEMENT FINAL_PART-1.11991 IS DISTORTING EXCESSIVELY.
   ELEMENT FINAL_PART-1.11993 IS DISTORTING EXCESSIVELY.
   ELEMENT FINAL_PART-1.11994 IS DISTORTING EXCESSIVELY.
   ELEMENT FINAL_PART-1.11995 IS DISTORTING EXCESSIVELY.
   ELEMENT FINAL_PART-1.11996 IS DISTORTING EXCESSIVELY.
   ELEMENT FINAL_PART-1.11997 IS DISTORTING EXCESSIVELY.
   ELEMENT FINAL_PART-1.12000 IS DISTORTING EXCESSIVELY.
   ELEMENT FINAL_PART-1.12002 IS DISTORTING EXCESSIVELY.
   ELEMENT FINAL_PART-1.12003 IS DISTORTING EXCESSIVELY.
   ELEMENT FINAL_PART-1.12004 IS DISTORTING EXCESSIVELY.
   ELEMENT FINAL_PART-1.12005 IS DISTORTING EXCESSIVELY.
   ELEMENT FINAL_PART-1.12007 IS DISTORTING EXCESSIVELY.
   ELEMENT FINAL_PART-1.12008 IS DISTORTING EXCESSIVELY.
   ELEMENT FINAL_PART-1.12009 IS DISTORTING EXCESSIVELY.
   ELEMENT FINAL_PART-1.12010 IS DISTORTING EXCESSIVELY.
   ELEMENT FINAL_PART-1.12011 IS DISTORTING EXCESSIVELY.
   ELEMENT FINAL_PART-1.12015 IS DISTORTING EXCESSIVELY.
   ELEMENT FINAL_PART-1.12016 IS DISTORTING EXCESSIVELY.
   ELEMENT FINAL_PART-1.12017 IS DISTORTING EXCESSIVELY.
   ELEMENT FINAL_PART-1.12019 IS DISTORTING EXCESSIVELY.
   ELEMENT FINAL_PART-1.12020 IS DISTORTING EXCESSIVELY.
   ELEMENT FINAL_PART-1.12023 IS DISTORTING EXCESSIVELY.
   ELEMENT FINAL_PART-1.12025 IS DISTORTING EXCESSIVELY.
   ELEMENT FINAL_PART-1.12028 IS DISTORTING EXCESSIVELY.
   ELEMENT FINAL_PART-1.12029 IS DISTORTING EXCESSIVELY.
   ELEMENT FINAL_PART-1.12030 IS DISTORTING EXCESSIVELY.
   ELEMENT FINAL_PART-1.12031 IS DISTORTING EXCESSIVELY.
   ELEMENT FINAL_PART-1.12032 IS DISTORTING EXCESSIVELY.
   ELEMENT FINAL_PART-1.14337 IS DISTORTING EXCESSIVELY.
   ELEMENT FINAL_PART-1.14338 IS DISTORTING EXCESSIVELY.
   ELEMENT FINAL_PART-1.14342 IS DISTORTING EXCESSIVELY.
   ELEMENT FINAL_PART-1.14345 IS DISTORTING EXCESSIVELY.
   ELEMENT FINAL_PART-1.14346 IS DISTORTING EXCESSIVELY.
   ELEMENT FINAL_PART-1.14347 IS DISTORTING EXCESSIVELY.
   ELEMENT FINAL_PART-1.14348 IS DISTORTING EXCESSIVELY.
   ELEMENT FINAL_PART-1.14350 IS DISTORTING EXCESSIVELY.
   ELEMENT FINAL_PART-1.14351 IS DISTORTING EXCESSIVELY.
   ELEMENT FINAL_PART-1.14352 IS DISTORTING EXCESSIVELY.
   ELEMENT FINAL_PART-1.14354 IS DISTORTING EXCESSIVELY.
   ELEMENT FINAL_PART-1.14355 IS DISTORTING EXCESSIVELY.
   ELEMENT FINAL_PART-1.14356 IS DISTORTING EXCESSIVELY.
   ELEMENT FINAL_PART-1.14357 IS DISTORTING EXCESSIVELY.
   ELEMENT FINAL_PART-1.14359 IS DISTORTING EXCESSIVELY.
   ELEMENT FINAL_PART-1.14361 IS DISTORTING EXCESSIVELY.
   ELEMENT FINAL_PART-1.14363 IS DISTORTING EXCESSIVELY.
   ELEMENT FINAL_PART-1.14368 IS DISTORTING EXCESSIVELY.
   ELEMENT FINAL_PART-1.14371 IS DISTORTING EXCESSIVELY.
   ELEMENT FINAL_PART-1.14374 IS DISTORTING EXCESSIVELY.
   ELEMENT FINAL_PART-1.14375 IS DISTORTING EXCESSIVELY.
   ELEMENT FINAL_PART-1.14376 IS DISTORTING EXCESSIVELY.
   ELEMENT FINAL_PART-1.14379 IS DISTORTING EXCESSIVELY.
   ELEMENT FINAL_PART-1.14380 IS DISTORTING EXCESSIVELY.
   ELEMENT FINAL_PART-1.14382 IS DISTORTING EXCESSIVELY.
   ELEMENT FINAL_PART-1.14383 IS DISTORTING EXCESSIVELY.
   ELEMENT FINAL_PART-1.14384 IS DISTORTING EXCESSIVELY.
   ELEMENT FINAL_PART-1.14385 IS DISTORTING EXCESSIVELY.
   ELEMENT FINAL_PART-1.14386 IS DISTORTING EXCESSIVELY.
   ELEMENT FINAL_PART-1.14387 IS DISTORTING EXCESSIVELY.
   ELEMENT FINAL_PART-1.14389 IS DISTORTING EXCESSIVELY.
   ELEMENT FINAL_PART-1.14390 IS DISTORTING EXCESSIVELY.
   ELEMENT FINAL_PART-1.14391 IS DISTORTING EXCESSIVELY.
   ELEMENT FINAL_PART-1.14392 IS DISTORTING EXCESSIVELY.
   ELEMENT FINAL_PART-1.14393 IS DISTORTING EXCESSIVELY.
   ELEMENT FINAL_PART-1.14394 IS DISTORTING EXCESSIVELY.
   ELEMENT FINAL_PART-1.14396 IS DISTORTING EXCESSIVELY.
   ELEMENT FINAL_PART-1.14397 IS DISTORTING EXCESSIVELY.
   ELEMENT FINAL_PART-1.14398 IS DISTORTING EXCESSIVELY.
   ELEMENT FINAL_PART-1.14399 IS DISTORTING EXCESSIVELY.
   ELEMENT FINAL_PART-1.14400 IS DISTORTING EXCESSIVELY.
   ELEMENT FINAL_PART-1.14402 IS DISTORTING EXCESSIVELY.
   ELEMENT FINAL_PART-1.14404 IS DISTORTING EXCESSIVELY.
   ELEMENT FINAL_PART-1.14405 IS DISTORTING EXCESSIVELY.
   ELEMENT FINAL_PART-1.14406 IS DISTORTING EXCESSIVELY.
   ELEMENT FINAL_PART-1.14407 IS DISTORTING EXCESSIVELY.
   ELEMENT FINAL_PART-1.14408 IS DISTORTING EXCESSIVELY.
   ELEMENT FINAL_PART-1.14409 IS DISTORTING EXCESSIVELY.
   ELEMENT FINAL_PART-1.14410 IS DISTORTING EXCESSIVELY.
   ELEMENT FINAL_PART-1.14411 IS DISTORTING EXCESSIVELY.
   ELEMENT FINAL_PART-1.14414 IS DISTORTING EXCESSIVELY.
   ELEMENT FINAL_PART-1.14416 IS DISTORTING EXCESSIVELY.
   ELEMENT FINAL_PART-1.14418 IS DISTORTING EXCESSIVELY.
   ELEMENT FINAL_PART-1.14421 IS DISTORTING EXCESSIVELY.
   ELEMENT FINAL_PART-1.14423 IS DISTORTING EXCESSIVELY.
   ELEMENT FINAL_PART-1.14424 IS DISTORTING EXCESSIVELY.
   ELEMENT FINAL_PART-1.14425 IS DISTORTING EXCESSIVELY.
   ELEMENT FINAL_PART-1.14426 IS DISTORTING EXCESSIVELY.
   ELEMENT FINAL_PART-1.14428 IS DISTORTING EXCESSIVELY.
   ELEMENT FINAL_PART-1.14429 IS DISTORTING EXCESSIVELY.
   ELEMENT FINAL_PART-1.14431 IS DISTORTING EXCESSIVELY.
   ELEMENT FINAL_PART-1.14432 IS DISTORTING EXCESSIVELY.
   ELEMENT FINAL_PART-1.14434 IS DISTORTING EXCESSIVELY.
   ELEMENT FINAL_PART-1.14435 IS DISTORTING EXCESSIVELY.
   ELEMENT FINAL_PART-1.14438 IS DISTORTING EXCESSIVELY.
   ELEMENT FINAL_PART-1.14441 IS DISTORTING EXCESSIVELY.
   ELEMENT FINAL_PART-1.14442 IS DISTORTING EXCESSIVELY.
   ELEMENT FINAL_PART-1.14443 IS DISTORTING EXCESSIVELY.
   ELEMENT FINAL_PART-1.14444 IS DISTORTING EXCESSIVELY.
   ELEMENT FINAL_PART-1.14448 IS DISTORTING EXCESSIVELY.
   ELEMENT FINAL_PART-1.14449 IS DISTORTING EXCESSIVELY.
   ELEMENT FINAL_PART-1.14450 IS DISTORTING EXCESSIVELY.
   ELEMENT FINAL_PART-1.14452 IS DISTORTING EXCESSIVELY.
   ELEMENT FINAL_PART-1.14456 IS DISTORTING EXCESSIVELY.
   ELEMENT FINAL_PART-1.14459 IS DISTORTING EXCESSIVELY.
   ELEMENT FINAL_PART-1.14460 IS DISTORTING EXCESSIVELY.
   ELEMENT FINAL_PART-1.14462 IS DISTORTING EXCESSIVELY.
   ELEMENT FINAL_PART-1.14463 IS DISTORTING EXCESSIVELY.
   ELEMENT FINAL_PART-1.14474 IS DISTORTING EXCESSIVELY.
   ELEMENT FINAL_PART-1.14477 IS DISTORTING EXCESSIVELY.
   ELEMENT FINAL_PART-1.14479 IS DISTORTING EXCESSIVELY.
   ELEMENT FINAL_PART-1.14480 IS DISTORTING EXCESSIVELY.
   ELEMENT FINAL_PART-1.14482 IS DISTORTING EXCESSIVELY.
   ELEMENT FINAL_PART-1.14483 IS DISTORTING EXCESSIVELY.
   ELEMENT FINAL_PART-1.14487 IS DISTORTING EXCESSIVELY.
   ELEMENT FINAL_PART-1.14491 IS DISTORTING EXCESSIVELY.
   ELEMENT FINAL_PART-1.14492 IS DISTORTING EXCESSIVELY.
   ELEMENT FINAL_PART-1.14493 IS DISTORTING EXCESSIVELY.
   ELEMENT FINAL_PART-1.14494 IS DISTORTING EXCESSIVELY.
   ELEMENT FINAL_PART-1.14496 IS DISTORTING EXCESSIVELY.
   ELEMENT FINAL_PART-1.14497 IS DISTORTING EXCESSIVELY.
   ELEMENT FINAL_PART-1.14500 IS DISTORTING EXCESSIVELY.
   ELEMENT FINAL_PART-1.14501 IS DISTORTING EXCESSIVELY.
   ELEMENT FINAL_PART-1.14503 IS DISTORTING EXCESSIVELY.
   ELEMENT FINAL_PART-1.14504 IS DISTORTING EXCESSIVELY.
   ELEMENT FINAL_PART-1.14505 IS DISTORTING EXCESSIVELY.
   ELEMENT FINAL_PART-1.14506 IS DISTORTING EXCESSIVELY.
   ELEMENT FINAL_PART-1.14507 IS DISTORTING EXCESSIVELY.
   ELEMENT FINAL_PART-1.14508 IS DISTORTING EXCESSIVELY.
   ELEMENT FINAL_PART-1.14509 IS DISTORTING EXCESSIVELY.
   ELEMENT FINAL_PART-1.14511 IS DISTORTING EXCESSIVELY.
   ELEMENT FINAL_PART-1.14513 IS DISTORTING EXCESSIVELY.
   ELEMENT FINAL_PART-1.14516 IS DISTORTING EXCESSIVELY.
   ELEMENT FINAL_PART-1.14520 IS DISTORTING EXCESSIVELY.
   ELEMENT FINAL_PART-1.14522 IS DISTORTING EXCESSIVELY.
   ELEMENT FINAL_PART-1.14523 IS DISTORTING EXCESSIVELY.
   ELEMENT FINAL_PART-1.14524 IS DISTORTING EXCESSIVELY.
   ELEMENT FINAL_PART-1.14525 IS DISTORTING EXCESSIVELY.
   ELEMENT FINAL_PART-1.14526 IS DISTORTING EXCESSIVELY.
   ELEMENT FINAL_PART-1.14528 IS DISTORTING EXCESSIVELY.
   ELEMENT FINAL_PART-1.14532 IS DISTORTING EXCESSIVELY.
   ELEMENT FINAL_PART-1.14533 IS DISTORTING EXCESSIVELY.
   ELEMENT FINAL_PART-1.14534 IS DISTORTING EXCESSIVELY.
   ELEMENT FINAL_PART-1.14535 IS DISTORTING EXCESSIVELY.
   ELEMENT FINAL_PART-1.14537 IS DISTORTING EXCESSIVELY.
   ELEMENT FINAL_PART-1.14539 IS DISTORTING EXCESSIVELY.
   ELEMENT FINAL_PART-1.14540 IS DISTORTING EXCESSIVELY.
   ELEMENT FINAL_PART-1.14541 IS DISTORTING EXCESSIVELY.
   ELEMENT FINAL_PART-1.14542 IS DISTORTING EXCESSIVELY.
   ELEMENT FINAL_PART-1.14545 IS DISTORTING EXCESSIVELY.
   ELEMENT FINAL_PART-1.14546 IS DISTORTING EXCESSIVELY.
   ELEMENT FINAL_PART-1.14547 IS DISTORTING EXCESSIVELY.
   ELEMENT FINAL_PART-1.14550 IS DISTORTING EXCESSIVELY.
   ELEMENT FINAL_PART-1.14553 IS DISTORTING EXCESSIVELY.
   ELEMENT FINAL_PART-1.14554 IS DISTORTING EXCESSIVELY.
[...]
  CORRESPONDING RESIDUAL FORCE     -2.368E-02
 LARGEST INCREMENT OF DISP.        -1.784E-03   AT NODE        254   DOF  1
   INSTANCE: FINAL_PART-1                                                                    
 LARGEST CORRECTION TO DISP.       -3.197E-05   AT NODE        229   DOF  1
   INSTANCE: FINAL_PART-1                                                                    
          FORCE     EQUILIBRIUM NOT ACHIEVED WITHIN TOLERANCE.
 
	SYMMETRIC PURE THREAD-BASED DIRECT SPARSE SOLVER RUNNING ON
 	1 HOST x 1 MPI RANK PER HOST x 10 THREADS PER RANK
        NUMBER OF EQUATIONS:  494706
        NUMBER OF RHS:        1
        NUMBER OF FLOPS:      1.131e+11
        SOLVER ELAPSED TIME:  2.1s

               CONVERGENCE CHECKS FOR EQUILIBRIUM ITERATION     3


 AVERAGE FORCE                      0.193       TIME AVG. FORCE       0.136    
 LARGEST SCALED RESIDUAL FORCE     -1.777E-02   AT NODE        847   DOF  1
   INSTANCE: FINAL_PART-1                                                                    
  CORRESPONDING RESIDUAL FORCE     -1.777E-02
 LARGEST INCREMENT OF DISP.        -1.805E-03   AT NODE        254   DOF  1
   INSTANCE: FINAL_PART-1                                                                    
 LARGEST CORRECTION TO DISP.       -2.067E-05   AT NODE        197   DOF  1
   INSTANCE: FINAL_PART-1                                                                    
          FORCE     EQUILIBRIUM NOT ACHIEVED WITHIN TOLERANCE.
 
	SYMMETRIC PURE THREAD-BASED DIRECT SPARSE SOLVER RUNNING ON
 	1 HOST x 1 MPI RANK PER HOST x 10 THREADS PER RANK
        NUMBER OF EQUATIONS:  494706
        NUMBER OF RHS:        1
        NUMBER OF FLOPS:      1.131e+11
        SOLVER ELAPSED TIME:  2.1s

               CONVERGENCE CHECKS FOR EQUILIBRIUM ITERATION     4


 AVERAGE FORCE                      0.193       TIME AVG. FORCE       0.136    
 LARGEST SCALED RESIDUAL FORCE     -7.380E-04   AT NODE        863   DOF  1
   INSTANCE: FINAL_PART-1                                                                    
  CORRESPONDING RESIDUAL FORCE     -7.380E-04
 LARGEST INCREMENT OF DISP.        -1.813E-03   AT NODE        254   DOF  1
   INSTANCE: FINAL_PART-1                                                                    
 LARGEST CORRECTION TO DISP.       -8.117E-06   AT NODE        254   DOF  1
   INSTANCE: FINAL_PART-1                                                                    
          FORCE     EQUILIBRIUM NOT ACHIEVED WITHIN TOLERANCE.
 
	SYMMETRIC PURE THREAD-BASED DIRECT SPARSE SOLVER RUNNING ON
 	1 HOST x 1 MPI RANK PER HOST x 10 THREADS PER RANK
        NUMBER OF EQUATIONS:  494706
        NUMBER OF RHS:        1
        NUMBER OF FLOPS:      1.131e+11
        SOLVER ELAPSED TIME:  2.1s

               CONVERGENCE CHECKS FOR EQUILIBRIUM ITERATION     5


 AVERAGE FORCE                      0.193       TIME AVG. FORCE       0.136    
 LARGEST SCALED RESIDUAL FORCE     -3.421E-03   AT NODE        849   DOF  1
   INSTANCE: FINAL_PART-1                                                                    
  CORRESPONDING RESIDUAL FORCE     -3.421E-03
 LARGEST INCREMENT OF DISP.        -1.828E-03   AT NODE        254   DOF  1
   INSTANCE: FINAL_PART-1                                                                    
 LARGEST CORRECTION TO DISP.       -1.456E-05   AT NODE        254   DOF  1
   INSTANCE: FINAL_PART-1                                                                    
          FORCE     EQUILIBRIUM NOT ACHIEVED WITHIN TOLERANCE.
 
	SYMMETRIC PURE THREAD-BASED DIRECT SPARSE SOLVER RUNNING ON
 	1 HOST x 1 MPI RANK PER HOST x 10 THREADS PER RANK
        NUMBER OF EQUATIONS:  494706
        NUMBER OF RHS:        1
        NUMBER OF FLOPS:      1.131e+11
        SOLVER ELAPSED TIME:  2.1s

               CONVERGENCE CHECKS FOR EQUILIBRIUM ITERATION     6


 AVERAGE FORCE                      0.193       TIME AVG. FORCE       0.136    
 LARGEST SCALED RESIDUAL FORCE      5.866E-05   AT NODE         12   DOF  2
   INSTANCE: FINAL_PART-1                                                                    
  CORRESPONDING RESIDUAL FORCE      5.866E-05
 LARGEST INCREMENT OF DISP.        -1.829E-03   AT NODE        254   DOF  1
   INSTANCE: FINAL_PART-1                                                                    
 LARGEST CORRECTION TO DISP.       -1.504E-06   AT NODE        254   DOF  1
   INSTANCE: FINAL_PART-1                                                                    
          THE FORCE     EQUILIBRIUM EQUATIONS HAVE CONVERGED

 ITERATION SUMMARY FOR THE INCREMENT:   6 TOTAL ITERATIONS, OF WHICH
   0 ARE SEVERE DISCONTINUITY ITERATIONS AND  6 ARE EQUILIBRIUM ITERATIONS.

 TIME INCREMENT COMPLETED  8.343E-03,  FRACTION OF STEP COMPLETED  0.983    
 STEP TIME COMPLETED       0.983    ,  TOTAL TIME COMPLETED        0.983    


  INCREMENT    47 STARTS. ATTEMPT NUMBER  1, TIME INCREMENT  8.343E-03
 
	SYMMETRIC PURE THREAD-BASED DIRECT SPARSE SOLVER RUNNING ON
 	1 HOST x 1 MPI RANK PER HOST x 10 THREADS PER RANK
        NUMBER OF EQUATIONS:  494706
        NUMBER OF RHS:        1
        NUMBER OF FLOPS:      1.131e+11
        SOLVER ELAPSED TIME:  2.1s

               CONVERGENCE CHECKS FOR EQUILIBRIUM ITERATION     1


 AVERAGE FORCE                      0.194       TIME AVG. FORCE       0.137    
 LARGEST SCALED RESIDUAL FORCE      0.221       AT NODE        853   DOF  1
   INSTANCE: FINAL_PART-1                                                                    
  CORRESPONDING RESIDUAL FORCE      0.221    
 LARGEST INCREMENT OF DISP.        -1.700E-03   AT NODE        254   DOF  1
   INSTANCE: FINAL_PART-1                                                                    
 LARGEST CORRECTION TO DISP.        1.392E-04   AT NODE        215   DOF  1
   INSTANCE: FINAL_PART-1                                                                    
          FORCE     EQUILIBRIUM NOT ACHIEVED WITHIN TOLERANCE.
 
	SYMMETRIC PURE THREAD-BASED DIRECT SPARSE SOLVER RUNNING ON
 	1 HOST x 1 MPI RANK PER HOST x 10 THREADS PER RANK
        NUMBER OF EQUATIONS:  494706
        NUMBER OF RHS:        1
        NUMBER OF FLOPS:      1.131e+11
        SOLVER ELAPSED TIME:  2.1s
 

 ***WARNING: THE SYSTEM MATRIX HAS 1 NEGATIVE EIGENVALUES.
             EXPLANATIONS ARE SUGGESTED AFTER THE FIRST OCCURRENCE OF THIS MESSAGE.

               CONVERGENCE CHECKS FOR EQUILIBRIUM ITERATION     2


 AVERAGE FORCE                      0.194       TIME AVG. FORCE       0.137    
 LARGEST SCALED RESIDUAL FORCE     -2.085E-02   AT NODE         14   DOF  2
   INSTANCE: FINAL_PART-1                                                                    
  CORRESPONDING RESIDUAL FORCE     -2.085E-02
 LARGEST INCREMENT OF DISP.        -1.729E-03   AT NODE        254   DOF  1
   INSTANCE: FINAL_PART-1                                                                    
 LARGEST CORRECTION TO DISP.       -3.063E-05   AT NODE        229   DOF  1
   INSTANCE: FINAL_PART-1                                                                    
          FORCE     EQUILIBRIUM NOT ACHIEVED WITHIN TOLERANCE.
 
	SYMMETRIC PURE THREAD-BASED DIRECT SPARSE SOLVER RUNNING ON
 	1 HOST x 1 MPI RANK PER HOST x 10 THREADS PER RANK
        NUMBER OF EQUATIONS:  494706
        NUMBER OF RHS:        1
        NUMBER OF FLOPS:      1.131e+11
        SOLVER ELAPSED TIME:  2.0s

               CONVERGENCE CHECKS FOR EQUILIBRIUM ITERATION     3


 AVERAGE FORCE                      0.194       TIME AVG. FORCE       0.137    
 LARGEST SCALED RESIDUAL FORCE     -1.611E-02   AT NODE        847   DOF  1
   INSTANCE: FINAL_PART-1                                                                    
  CORRESPONDING RESIDUAL FORCE     -1.611E-02
 LARGEST INCREMENT OF DISP.        -1.749E-03   AT NODE        254   DOF  1
   INSTANCE: FINAL_PART-1                                                                    
 LARGEST CORRECTION TO DISP.       -2.041E-05   AT NODE        265   DOF  1
   INSTANCE: FINAL_PART-1                                                                    
          FORCE     EQUILIBRIUM NOT ACHIEVED WITHIN TOLERANCE.
 
	SYMMETRIC PURE THREAD-BASED DIRECT SPARSE SOLVER RUNNING ON
 	1 HOST x 1 MPI RANK PER HOST x 10 THREADS PER RANK
        NUMBER OF EQUATIONS:  494706
        NUMBER OF RHS:        1
        NUMBER OF FLOPS:      1.131e+11
        SOLVER ELAPSED TIME:  2.1s

               CONVERGENCE CHECKS FOR EQUILIBRIUM ITERATION     4


 AVERAGE FORCE                      0.194       TIME AVG. FORCE       0.137    
 LARGEST SCALED RESIDUAL FORCE     -6.512E-04   AT NODE        863   DOF  1
   INSTANCE: FINAL_PART-1                                                                    
  CORRESPONDING RESIDUAL FORCE     -6.512E-04
 LARGEST INCREMENT OF DISP.        -1.757E-03   AT NODE        254   DOF  1
   INSTANCE: FINAL_PART-1                                                                    
 LARGEST CORRECTION TO DISP.       -7.660E-06   AT NODE        254   DOF  1
   INSTANCE: FINAL_PART-1                                                                    
          THE FORCE     EQUILIBRIUM EQUATIONS HAVE CONVERGED

 ITERATION SUMMARY FOR THE INCREMENT:   4 TOTAL ITERATIONS, OF WHICH
   0 ARE SEVERE DISCONTINUITY ITERATIONS AND  4 ARE EQUILIBRIUM ITERATIONS.

 TIME INCREMENT COMPLETED  8.343E-03,  FRACTION OF STEP COMPLETED  0.991    
 STEP TIME COMPLETED       0.991    ,  TOTAL TIME COMPLETED        0.991    


  INCREMENT    48 STARTS. ATTEMPT NUMBER  1, TIME INCREMENT  8.343E-03
 
	SYMMETRIC PURE THREAD-BASED DIRECT SPARSE SOLVER RUNNING ON
 	1 HOST x 1 MPI RANK PER HOST x 10 THREADS PER RANK
        NUMBER OF EQUATIONS:  494706
        NUMBER OF RHS:        1
        NUMBER OF FLOPS:      1.131e+11
        SOLVER ELAPSED TIME:  2.1s

               CONVERGENCE CHECKS FOR EQUILIBRIUM ITERATION     1


 AVERAGE FORCE                      0.195       TIME AVG. FORCE       0.138    
 LARGEST SCALED RESIDUAL FORCE      0.230       AT NODE        853   DOF  1
   INSTANCE: FINAL_PART-1                                                                    
  CORRESPONDING RESIDUAL FORCE      0.230    
 LARGEST INCREMENT OF DISP.        -1.662E-03   AT NODE        254   DOF  1
   INSTANCE: FINAL_PART-1                                                                    
 LARGEST CORRECTION TO DISP.        1.145E-04   AT NODE        215   DOF  1
   INSTANCE: FINAL_PART-1                                                                    
          FORCE     EQUILIBRIUM NOT ACHIEVED WITHIN TOLERANCE.
 
	SYMMETRIC PURE THREAD-BASED DIRECT SPARSE SOLVER RUNNING ON
 	1 HOST x 1 MPI RANK PER HOST x 10 THREADS PER RANK
        NUMBER OF EQUATIONS:  494706
        NUMBER OF RHS:        1
        NUMBER OF FLOPS:      1.131e+11
        SOLVER ELAPSED TIME:  2.1s
 

 ***WARNING: THE SYSTEM MATRIX HAS 1 NEGATIVE EIGENVALUES.
             EXPLANATIONS ARE SUGGESTED AFTER THE FIRST OCCURRENCE OF THIS MESSAGE.

               CONVERGENCE CHECKS FOR EQUILIBRIUM ITERATION     2


 AVERAGE FORCE                      0.195       TIME AVG. FORCE       0.138    
 LARGEST SCALED RESIDUAL FORCE     -2.207E-02   AT NODE         14   DOF  1
   INSTANCE: FINAL_PART-1                                                                    
  CORRESPONDING RESIDUAL FORCE     -2.207E-02
 LARGEST INCREMENT OF DISP.        -1.707E-03   AT NODE        254   DOF  1
   INSTANCE: FINAL_PART-1                                                                    
 LARGEST CORRECTION TO DISP.       -5.176E-05   AT NODE        229   DOF  1
   INSTANCE: FINAL_PART-1                                                                    
          FORCE     EQUILIBRIUM NOT ACHIEVED WITHIN TOLERANCE.
 
	SYMMETRIC PURE THREAD-BASED DIRECT SPARSE SOLVER RUNNING ON
 	1 HOST x 1 MPI RANK PER HOST x 10 THREADS PER RANK
        NUMBER OF EQUATIONS:  494706
        NUMBER OF RHS:        1
        NUMBER OF FLOPS:      1.131e+11
        SOLVER ELAPSED TIME:  2.1s

               CONVERGENCE CHECKS FOR EQUILIBRIUM ITERATION     3


 AVERAGE FORCE                      0.195       TIME AVG. FORCE       0.138    
 LARGEST SCALED RESIDUAL FORCE     -2.114E-02   AT NODE        849   DOF  1
   INSTANCE: FINAL_PART-1                                                                    
  CORRESPONDING RESIDUAL FORCE     -2.114E-02
 LARGEST INCREMENT OF DISP.        -1.708E-03   AT NODE        254   DOF  1
   INSTANCE: FINAL_PART-1                                                                    
 LARGEST CORRECTION TO DISP.        3.147E-05   AT NODE        229   DOF  1
   INSTANCE: FINAL_PART-1                                                                    
          FORCE     EQUILIBRIUM NOT ACHIEVED WITHIN TOLERANCE.
 
	SYMMETRIC PURE THREAD-BASED DIRECT SPARSE SOLVER RUNNING ON
 	1 HOST x 1 MPI RANK PER HOST x 10 THREADS PER RANK
        NUMBER OF EQUATIONS:  494706
        NUMBER OF RHS:        1
        NUMBER OF FLOPS:      1.131e+11
        SOLVER ELAPSED TIME:  2.1s

               CONVERGENCE CHECKS FOR EQUILIBRIUM ITERATION     4


 AVERAGE FORCE                      0.195       TIME AVG. FORCE       0.138    
 LARGEST SCALED RESIDUAL FORCE     -8.397E-04   AT NODE        863   DOF  1
   INSTANCE: FINAL_PART-1                                                                    
  CORRESPONDING RESIDUAL FORCE     -8.397E-04
 LARGEST INCREMENT OF DISP.        -1.714E-03   AT NODE        254   DOF  1
   INSTANCE: FINAL_PART-1                                                                    
 LARGEST CORRECTION TO DISP.       -6.597E-06   AT NODE        265   DOF  1
   INSTANCE: FINAL_PART-1                                                                    
          FORCE     EQUILIBRIUM NOT ACHIEVED WITHIN TOLERANCE.
 
	SYMMETRIC PURE THREAD-BASED DIRECT SPARSE SOLVER RUNNING ON
 	1 HOST x 1 MPI RANK PER HOST x 10 THREADS PER RANK
        NUMBER OF EQUATIONS:  494706
        NUMBER OF RHS:        1
        NUMBER OF FLOPS:      1.131e+11
        SOLVER ELAPSED TIME:  2.1s

               CONVERGENCE CHECKS FOR EQUILIBRIUM ITERATION     5


 AVERAGE FORCE                      0.195       TIME AVG. FORCE       0.138    
 LARGEST SCALED RESIDUAL FORCE     -2.875E-03   AT NODE        851   DOF  1
   INSTANCE: FINAL_PART-1                                                                    
  CORRESPONDING RESIDUAL FORCE     -2.875E-03
 LARGEST INCREMENT OF DISP.        -1.727E-03   AT NODE        254   DOF  1
   INSTANCE: FINAL_PART-1                                                                    
 LARGEST CORRECTION TO DISP.       -1.298E-05   AT NODE        254   DOF  1
   INSTANCE: FINAL_PART-1                                                                    
          FORCE     EQUILIBRIUM NOT ACHIEVED WITHIN TOLERANCE.
 
	SYMMETRIC PURE THREAD-BASED DIRECT SPARSE SOLVER RUNNING ON
 	1 HOST x 1 MPI RANK PER HOST x 10 THREADS PER RANK
        NUMBER OF EQUATIONS:  494706
        NUMBER OF RHS:        1
        NUMBER OF FLOPS:      1.131e+11
        SOLVER ELAPSED TIME:  2.1s

               CONVERGENCE CHECKS FOR EQUILIBRIUM ITERATION     6


 AVERAGE FORCE                      0.195       TIME AVG. FORCE       0.138    
 LARGEST SCALED RESIDUAL FORCE      5.188E-05   AT NODE         12   DOF  2
   INSTANCE: FINAL_PART-1                                                                    
  CORRESPONDING RESIDUAL FORCE      5.188E-05
 LARGEST INCREMENT OF DISP.        -1.729E-03   AT NODE        254   DOF  1
   INSTANCE: FINAL_PART-1                                                                    
 LARGEST CORRECTION TO DISP.       -1.388E-06   AT NODE        254   DOF  1
   INSTANCE: FINAL_PART-1                                                                    
          THE FORCE     EQUILIBRIUM EQUATIONS HAVE CONVERGED

 ITERATION SUMMARY FOR THE INCREMENT:   6 TOTAL ITERATIONS, OF WHICH
   0 ARE SEVERE DISCONTINUITY ITERATIONS AND  6 ARE EQUILIBRIUM ITERATIONS.

 TIME INCREMENT COMPLETED  8.343E-03,  FRACTION OF STEP COMPLETED  0.999    
 STEP TIME COMPLETED       0.999    ,  TOTAL TIME COMPLETED        0.999    


  INCREMENT    49 STARTS. ATTEMPT NUMBER  1, TIME INCREMENT  7.248E-04
 
	SYMMETRIC PURE THREAD-BASED DIRECT SPARSE SOLVER RUNNING ON
 	1 HOST x 1 MPI RANK PER HOST x 10 THREADS PER RANK
        NUMBER OF EQUATIONS:  494706
        NUMBER OF RHS:        1
        NUMBER OF FLOPS:      1.131e+11
        SOLVER ELAPSED TIME:  2.0s

               CONVERGENCE CHECKS FOR EQUILIBRIUM ITERATION     1


 AVERAGE FORCE                      0.195       TIME AVG. FORCE       0.139    
 LARGEST SCALED RESIDUAL FORCE      4.174E-03   AT NODE          2   DOF  3
   INSTANCE: FINAL_PART-1                                                                    
  CORRESPONDING RESIDUAL FORCE      4.174E-03
 LARGEST INCREMENT OF DISP.        -1.433E-04   AT NODE        254   DOF  1
   INSTANCE: FINAL_PART-1                                                                    
 LARGEST CORRECTION TO DISP.        7.168E-06   AT NODE        216   DOF  1
   INSTANCE: FINAL_PART-1                                                                    
          FORCE     EQUILIBRIUM NOT ACHIEVED WITHIN TOLERANCE.
 
	SYMMETRIC PURE THREAD-BASED DIRECT SPARSE SOLVER RUNNING ON
 	1 HOST x 1 MPI RANK PER HOST x 10 THREADS PER RANK
        NUMBER OF EQUATIONS:  494706
        NUMBER OF RHS:        1
        NUMBER OF FLOPS:      1.131e+11
        SOLVER ELAPSED TIME:  2.2s

               CONVERGENCE CHECKS FOR EQUILIBRIUM ITERATION     2


 AVERAGE FORCE                      0.195       TIME AVG. FORCE       0.139    
 LARGEST SCALED RESIDUAL FORCE      1.400E-04   AT NODE         30   DOF  2
   INSTANCE: FINAL_PART-1                                                                    
  CORRESPONDING RESIDUAL FORCE      1.400E-04
 LARGEST INCREMENT OF DISP.        -1.470E-04   AT NODE        254   DOF  1
   INSTANCE: FINAL_PART-1                                                                    
 LARGEST CORRECTION TO DISP.       -3.706E-06   AT NODE        254   DOF  1
   INSTANCE: FINAL_PART-1                                                                    
 ESTIMATE OF DISP.    CORRECTION   -1.244E-07
          FORCE     EQUILIB. ACCEPTED BASED ON SMALL RESIDUAL AND ESTIMATED CORRECTION

 ITERATION SUMMARY FOR THE INCREMENT:   2 TOTAL ITERATIONS, OF WHICH
   0 ARE SEVERE DISCONTINUITY ITERATIONS AND  2 ARE EQUILIBRIUM ITERATIONS.

 TIME INCREMENT COMPLETED  7.248E-04,  FRACTION OF STEP COMPLETED   1.00    
 STEP TIME COMPLETED        1.00    ,  TOTAL TIME COMPLETED         1.00    


          THE ANALYSIS HAS BEEN COMPLETED



     ANALYSIS SUMMARY:
     TOTAL OF         49  INCREMENTS
                       6  CUTBACKS IN AUTOMATIC INCREMENTATION
                     337  ITERATIONS INCLUDING CONTACT ITERATIONS IF PRESENT
                     337  PASSES THROUGH THE EQUATION SOLVER OF WHICH 
                     337  INVOLVE MATRIX DECOMPOSITION, INCLUDING
                       0  DECOMPOSITION(S) OF THE MASS MATRIX
                       1  REORDERING OF EQUATIONS TO MINIMIZE WAVEFRONT
                       0  ADDITIONAL RESIDUAL EVALUATIONS FOR LINE SEARCHES
                       0  ADDITIONAL OPERATOR EVALUATIONS FOR LINE SEARCHES
                       1  WARNING MESSAGES DURING USER INPUT PROCESSING
                  490722  WARNING MESSAGES DURING ANALYSIS
                  490663  ANALYSIS WARNINGS ARE NUMERICAL PROBLEM MESSAGES
                      52  ANALYSIS WARNINGS ARE NEGATIVE EIGENVALUE MESSAGES
                       0  ERROR MESSAGES



     JOB TIME SUMMARY
       USER TIME (SEC)      =     6.93E+04
       SYSTEM TIME (SEC)    =     1.77E+03
       TOTAL CPU TIME (SEC) =     7.11E+04
       WALLCLOCK TIME (SEC) =         8576
       MEMORY PEAK (GB)     =            0
