1

   Abaqus 2025                                  Date 10-Feb-2026   Time 15:47:46
   For use by UNIVERSITAET STUTTGART under license from Dassault Systemes or its subsidiary.

                                                                                 
                                                                                 
 STEP    1     INCREMENT     1     STEP TIME    0.00    


                        S T E P       1     D Y N A M I C   A N A L Y S I S - I M P L I C I T  I N T E G R A T I O N


                                                                                          

          DYNAMIC APPLICATION PACKED SCHEME IS                 TRANSIENT FIDELITY  
          HILBER-HUGHES-TAYLOR (HHT) TIME INTEGRATOR IS USED

     AUTOMATIC TIME CONTROL WITH -
          A SUGGESTED INITIAL TIME INCREMENT OF                 1.00    
          AND A TOTAL TIME PERIOD OF                            1.00    
          THE MINIMUM TIME INCREMENT ALLOWED IS                1.000E-05
          THE MAXIMUM TIME INCREMENT ALLOWED IS                 1.00    
          SCALE FACTOR ON TIME AVERAGE FORCE FOR HALF-
           -INCREMENT RESIDUAL COMPUTATIONS IS                 1.000E+03

          HILBER-HUGHES-TAYLOR METHOD PARAMETERS:  ALPHA   IS  -5.000000E-02
                                                   BETA    IS   0.275625    
                                                   GAMMA   IS   0.550000    
          SINGULAR MASS TREATMENT TYPE IS                     ERROR
          CONSERVATIVE TIME INCREMENTATION IS USED
          STEP AMPLITUDE IS                                    STEP

 CONVERGENCE TOLERANCE PARAMETERS FOR FORCE    
     CRITERION FOR RESIDUAL FORCE     FOR A NONLINEAR PROBLEM          5.000E-03
     CRITERION FOR DISP.    CORRECTION IN A NONLINEAR PROBLEM          1.000E-02
     INITIAL VALUE OF TIME AVERAGE FORCE                               1.000E-02
     AVERAGE FORCE     IS TIME AVERAGE FORCE    
     ALTERNATE CRIT. FOR RESIDUAL FORCE     FOR A NONLINEAR PROBLEM    2.000E-02
     CRITERION FOR ZERO FORCE     RELATIVE TO TIME AVRG. FORCE         1.000E-05
     CRITERION FOR RESIDUAL FORCE     WHEN THERE IS ZERO FLUX          1.000E-05
     CRITERION FOR DISP.    CORRECTION WHEN THERE IS ZERO FLUX         1.000E-03
     CRITERION FOR RESIDUAL FORCE     FOR A LINEAR INCREMENT           1.000E-08
     FIELD CONVERSION RATIO                                             1.00    
     CRITERION FOR ZERO FORCE     REL. TO TIME AVRG. MAX. FORCE        1.000E-05
     CRITERION FOR ZERO DISP.    RELATIVE TO CHARACTERISTIC LENGTH     1.000E-08

     VOLUMETRIC STRAIN COMPATIBILITY TOLERANCE FOR HYBRID SOLIDS       1.000E-05
     AXIAL STRAIN COMPATIBILITY TOLERANCE FOR HYBRID BEAMS             1.000E-05
     TRANS. SHEAR STRAIN COMPATIBILITY TOLERANCE FOR HYBRID BEAMS      1.000E-05
     SOFT CONTACT CONSTRAINT COMPATIBILITY TOLERANCE FOR P>P0          5.000E-03
     SOFT CONTACT CONSTRAINT COMPATIBILITY TOLERANCE FOR P=0.0         0.100    
     CONTACT FORCE ERROR TOLERANCE FOR CONVERT SDI=YES                 1.00    
     DISPLACEMENT COMPATIBILITY TOLERANCE FOR DCOUP ELEMENTS           1.000E-05
     ROTATION COMPATIBILITY TOLERANCE FOR DCOUP ELEMENTS               1.000E-05

 EQUILIBRIUM WILL BE CHECKED FOR SEVERE DISCONTINUITY ITERATIONS

 TIME INCREMENTATION CONTROL PARAMETERS:
     FIRST EQUILIBRIUM ITERATION FOR CONSECUTIVE DIVERGENCE CHECK              4
     EQUILIBRIUM ITERATION AT WHICH LOG. CONVERGENCE RATE CHECK BEGINS         8
     EQUILIBRIUM ITERATION AFTER WHICH ALTERNATE RESIDUAL IS USED              9
     MAXIMUM EQUILIBRIUM ITERATIONS ALLOWED                                   16
     EQUILIBRIUM ITERATION COUNT FOR CUT-BACK IN NEXT INCREMENT               10
     MAXIMUM EQUILIB. ITERS IN TWO INCREMENTS FOR TIME INCREMENT INCREASE      4
     MAXIMUM ITERATIONS FOR SEVERE DISCONTINUITIES                            50
     MAXIMUM ATTEMPTS ALLOWED IN AN INCREMENT                                  5
     MAXIMUM DISCON. ITERS IN TWO INCREMENTS FOR TIME INCREMENT INCREASE      50
     MAXIMUM CONTACT AUGMENTATIONS FOR *SURFACE BEHAVIOR,AUGMENTED LAGRANGE   50
     CONSECUTIVE INCS MEETING TIME INTEG. TOL. FOR TIME INC. INCREASE          3
     CUT-BACK FACTOR AFTER DIVERGENCE                                 0.2500    
     CUT-BACK FACTOR FOR TOO SLOW CONVERGENCE                         0.5000    
     CUT-BACK FACTOR AFTER TOO MANY EQUILIBRIUM ITERATIONS            0.7500    
     CUT-BACK FACTOR AFTER TOO MANY SEVERE DISCONTINUITY ITERATIONS   0.2500    
     CUT-BACK FACTOR AFTER PROBLEMS IN ELEMENT ASSEMBLY               0.2500    
     INCREASE FACTOR AFTER TWO INCREMENTS THAT CONVERGE QUICKLY        1.500    
     MAX. TIME INCREMENT INCREASE FACTOR ALLOWED                       1.500    
     MAX. TIME INCREMENT INCREASE FACTOR ALLOWED (DYNAMICS)            1.250    
     MAX. TIME INCREMENT INCREASE FACTOR ALLOWED (DIFFUSION)           2.000    
     MINIMUM TIME INCREMENT RATIO FOR EXTRAPOLATION TO OCCUR          0.1000    
     CUT-BACK FACTOR WHEN TIME INTEGRATION ACCURACY TOL. EXCEEDED     0.8500    
     MAX. RATIO OF TIME INTEG. MEASURE TO TOL. FOR TIME INC. INCREASE 0.7500    
     INCREASE FACTOR FOR TIME INCREMENT WHEN POSSIBLE                 0.8000    
     MIN. TIME INC. INCREASE FACTOR IN LINEAR TRANSIENT PROBLEMS      0.9500    
     MAX. RATIO OF TIME INCREMENT TO STABILITY LIMIT                   1.000    
     FRACTION OF STABILITY LIMIT FOR NEW TIME INCREMENT               0.9500    
     TIME INCREMENT INCREASE FACTOR BEFORE A TIME POINT                1.000    
     GLOBAL STABILIZATION CONTROL IS NOT USED

          PRINT OF INCREMENT NUMBER, TIME, ETC., EVERY    1  INCREMENTS

     THE MAXIMUM NUMBER OF INCREMENTS IN THIS STEP IS                     100

     VELOCITY-BASED PARABOLIC EXTRAPOLATION WILL BE USED

     CHARACTERISTIC ELEMENT LENGTH     8.268E-04

     DETAILS REGARDING ACTUAL SOLUTION WAVEFRONT REQUESTED

     DETAILED OUTPUT OF DIAGNOSTICS TO DATABASE REQUESTED

     PRINT OF INCREMENT NUMBER, TIME, ETC., TO THE MESSAGE FILE EVERY     1  INCREMENTS

     COLLECTING MODEL CONSTRAINT INFORMATION FOR OVERCONSTRAINT CHECKS

     COLLECTING STEP CONSTRAINT INFORMATION FOR OVERCONSTRAINT CHECKS
 
	REGULARIZED SYMMETRIC HYBRID DIRECT SPARSE SOLVER RUNNING ON
 	1 HOST x 1 MPI RANK PER HOST x 1 THREAD PER RANK
        NUMBER OF EQUATIONS:  90774
        NUMBER OF RHS:        1
        NUMBER OF FLOPS:      6.037e+09
        SOLVER ELAPSED TIME:  515ms
 
	REGULARIZED SYMMETRIC HYBRID DIRECT SPARSE SOLVER RUNNING ON
 	1 HOST x 1 MPI RANK PER HOST x 1 THREAD PER RANK
        NUMBER OF EQUATIONS:  90774
        NUMBER OF RHS:        1
        NUMBER OF FLOPS:      6.037e+09
        SOLVER ELAPSED TIME:  484ms


  INCREMENT     1 STARTS. ATTEMPT NUMBER  1, TIME INCREMENT   1.00    
 
	SYMMETRIC HYBRID DIRECT SPARSE SOLVER RUNNING ON
 	1 HOST x 1 MPI RANK PER HOST x 1 THREAD PER RANK
        NUMBER OF EQUATIONS:  90774
        NUMBER OF RHS:        1
        NUMBER OF FLOPS:      6.037e+09
        SOLVER ELAPSED TIME:  456ms

               CONVERGENCE CHECKS FOR EQUILIBRIUM ITERATION     1


 AVERAGE FORCE                      2.328E-05   TIME AVG. FORCE       2.328E-05
 LARGEST SCALED RESIDUAL FORCE     -3.902E-11   AT NODE      20817   DOF  3
   INSTANCE: SPIRAL-1                                                                        
  CORRESPONDING RESIDUAL FORCE     -3.902E-11
 LARGEST INCREMENT OF DISP.        -1.856E-03   AT NODE       3156   DOF  3
   INSTANCE: SPIRAL-1                                                                        
 LARGEST CORRECTION TO DISP.       -1.856E-03   AT NODE       3156   DOF  3
   INSTANCE: SPIRAL-1                                                                        
 ESTIMATE OF DISP.    CORRECTION   -2.886E-07
          FORCE     EQUILIB. ACCEPTED BASED ON SMALL RESIDUAL AND ESTIMATED CORRECTION

  MAXIMUM HALF-INCREMENT FORCE RESIDUAL IS   2.651E+04 AND OCCURS AT NODE        889 INSTANCE SPIRAL-1                                                                        
 

 ***NOTE: THE TIME INTEGRATION ACCURACY TOLERANCE HAS BEEN EXCEEDED.


  INCREMENT     1 STARTS. ATTEMPT NUMBER  2, TIME INCREMENT  1.000E-05
 
	SYMMETRIC HYBRID DIRECT SPARSE SOLVER RUNNING ON
 	1 HOST x 1 MPI RANK PER HOST x 1 THREAD PER RANK
        NUMBER OF EQUATIONS:  90774
        NUMBER OF RHS:        1
        NUMBER OF FLOPS:      6.037e+09
        SOLVER ELAPSED TIME:  471ms

               CONVERGENCE CHECKS FOR EQUILIBRIUM ITERATION     1


 AVERAGE FORCE                      2.065E-09   TIME AVG. FORCE       1.000E-02
 LARGEST SCALED RESIDUAL FORCE     -2.777E-19   AT NODE      22928   DOF  3
   INSTANCE: SPIRAL-1                                                                        
  CORRESPONDING RESIDUAL FORCE     -2.777E-19
 LARGEST INCREMENT OF DISP.        -8.165E-12   AT NODE      10905   DOF  3
   INSTANCE: SPIRAL-1                                                                        
 LARGEST CORRECTION TO DISP.       -8.165E-12   AT NODE      10905   DOF  3
   INSTANCE: SPIRAL-1                                                                        
          THERE IS ZERO FORCE     EVERYWHERE
 

 ***WARNING: THERE IS ZERO FORCE EVERYWHERE IN THE MODEL BASED ON THE DEFAULT 
             CRITERION. PLEASE CHECK THE VALUE OF THE AVERAGE FORCE DURING THE 
             CURRENT ITERATION TO VERIFY THAT THE FORCE IS SMALL ENOUGH TO BE 
             TREATED AS ZERO. IF NOT, PLEASE USE THE SOLUTION CONTROLS TO RESET 
             THE CRITERION FOR ZERO FORCE.

  MAXIMUM HALF-INCREMENT FORCE RESIDUAL IS   2.645E-06 AND OCCURS AT NODE        889 INSTANCE SPIRAL-1                                                                        

 ITERATION SUMMARY FOR THE INCREMENT:   1 TOTAL ITERATIONS, OF WHICH
   0 ARE SEVERE DISCONTINUITY ITERATIONS AND  1 ARE EQUILIBRIUM ITERATIONS.

 TIME INCREMENT COMPLETED  1.000E-05,  FRACTION OF STEP COMPLETED  1.000E-05
 STEP TIME COMPLETED       1.000E-05,  TOTAL TIME COMPLETED        1.000E-05


  INCREMENT     2 STARTS. ATTEMPT NUMBER  1, TIME INCREMENT  1.000E-05
 
	SYMMETRIC HYBRID DIRECT SPARSE SOLVER RUNNING ON
 	1 HOST x 1 MPI RANK PER HOST x 1 THREAD PER RANK
        NUMBER OF EQUATIONS:  90774
        NUMBER OF RHS:        1
        NUMBER OF FLOPS:      6.037e+09
        SOLVER ELAPSED TIME:  461ms

               CONVERGENCE CHECKS FOR EQUILIBRIUM ITERATION     1


 AVERAGE FORCE                      5.332E-09   TIME AVG. FORCE       1.000E-02
 LARGEST SCALED RESIDUAL FORCE      1.477E-19   AT NODE      22472   DOF  3
   INSTANCE: SPIRAL-1                                                                        
  CORRESPONDING RESIDUAL FORCE      1.477E-19
 LARGEST INCREMENT OF DISP.        -2.764E-11   AT NODE      10904   DOF  3
   INSTANCE: SPIRAL-1                                                                        
 LARGEST CORRECTION TO DISP.        6.070E-12   AT NODE      10546   DOF  3
   INSTANCE: SPIRAL-1                                                                        
          THERE IS ZERO FORCE     EVERYWHERE
 

 ***WARNING: THERE IS ZERO FORCE EVERYWHERE IN THE MODEL BASED ON THE DEFAULT 
             CRITERION. PLEASE CHECK THE VALUE OF THE AVERAGE FORCE DURING THE 
             CURRENT ITERATION TO VERIFY THAT THE FORCE IS SMALL ENOUGH TO BE 
             TREATED AS ZERO. IF NOT, PLEASE USE THE SOLUTION CONTROLS TO RESET 
             THE CRITERION FOR ZERO FORCE.

  MAXIMUM HALF-INCREMENT FORCE RESIDUAL IS  -2.112E-06 AND OCCURS AT NODE        889 INSTANCE SPIRAL-1                                                                        

 ITERATION SUMMARY FOR THE INCREMENT:   1 TOTAL ITERATIONS, OF WHICH
   0 ARE SEVERE DISCONTINUITY ITERATIONS AND  1 ARE EQUILIBRIUM ITERATIONS.

 TIME INCREMENT COMPLETED  1.000E-05,  FRACTION OF STEP COMPLETED  2.000E-05
 STEP TIME COMPLETED       2.000E-05,  TOTAL TIME COMPLETED        2.000E-05


  INCREMENT     3 STARTS. ATTEMPT NUMBER  1, TIME INCREMENT  1.000E-05
 
	SYMMETRIC HYBRID DIRECT SPARSE SOLVER RUNNING ON
 	1 HOST x 1 MPI RANK PER HOST x 1 THREAD PER RANK
        NUMBER OF EQUATIONS:  90774
        NUMBER OF RHS:        1
        NUMBER OF FLOPS:      6.037e+09
        SOLVER ELAPSED TIME:  43ms

               CONVERGENCE CHECKS FOR EQUILIBRIUM ITERATION     1


 AVERAGE FORCE                      8.886E-09   TIME AVG. FORCE       1.000E-02
 LARGEST SCALED RESIDUAL FORCE     -3.515E-19   AT NODE      21927   DOF  3
   INSTANCE: SPIRAL-1                                                                        
  CORRESPONDING RESIDUAL FORCE     -3.515E-19
 LARGEST INCREMENT OF DISP.        -5.289E-11   AT NODE      10904   DOF  3
   INSTANCE: SPIRAL-1                                                                        
 LARGEST CORRECTION TO DISP.       -4.426E-12   AT NODE       8270   DOF  2
   INSTANCE: SPIRAL-1                                                                        
          THERE IS ZERO FORCE     EVERYWHERE
 

 ***WARNING: THERE IS ZERO FORCE EVERYWHERE IN THE MODEL BASED ON THE DEFAULT 
             CRITERION. PLEASE CHECK THE VALUE OF THE AVERAGE FORCE DURING THE 
             CURRENT ITERATION TO VERIFY THAT THE FORCE IS SMALL ENOUGH TO BE 
             TREATED AS ZERO. IF NOT, PLEASE USE THE SOLUTION CONTROLS TO RESET 
             THE CRITERION FOR ZERO FORCE.

  MAXIMUM HALF-INCREMENT FORCE RESIDUAL IS   1.663E-06 AND OCCURS AT NODE        889 INSTANCE SPIRAL-1                                                                        
          TIME INCREMENT MAY NOW INCREASE TO    1.250E-05

 ITERATION SUMMARY FOR THE INCREMENT:   1 TOTAL ITERATIONS, OF WHICH
   0 ARE SEVERE DISCONTINUITY ITERATIONS AND  1 ARE EQUILIBRIUM ITERATIONS.

 TIME INCREMENT COMPLETED  1.000E-05,  FRACTION OF STEP COMPLETED  3.000E-05
 STEP TIME COMPLETED       3.000E-05,  TOTAL TIME COMPLETED        3.000E-05


  INCREMENT     4 STARTS. ATTEMPT NUMBER  1, TIME INCREMENT  1.250E-05
 
	SYMMETRIC HYBRID DIRECT SPARSE SOLVER RUNNING ON
 	1 HOST x 1 MPI RANK PER HOST x 1 THREAD PER RANK
        NUMBER OF EQUATIONS:  90774
        NUMBER OF RHS:        1
        NUMBER OF FLOPS:      6.037e+09
        SOLVER ELAPSED TIME:  461ms

               CONVERGENCE CHECKS FOR EQUILIBRIUM ITERATION     1


 AVERAGE FORCE                      1.396E-08   TIME AVG. FORCE       1.000E-02
 LARGEST SCALED RESIDUAL FORCE     -3.803E-19   AT NODE      22315   DOF  3
   INSTANCE: SPIRAL-1                                                                        
  CORRESPONDING RESIDUAL FORCE     -3.803E-19
 LARGEST INCREMENT OF DISP.        -9.781E-11   AT NODE       3294   DOF  3
   INSTANCE: SPIRAL-1                                                                        
 LARGEST CORRECTION TO DISP.        8.048E-12   AT NODE      10898   DOF  3
   INSTANCE: SPIRAL-1                                                                        
          THERE IS ZERO FORCE     EVERYWHERE
 

 ***WARNING: THERE IS ZERO FORCE EVERYWHERE IN THE MODEL BASED ON THE DEFAULT 
             CRITERION. PLEASE CHECK THE VALUE OF THE AVERAGE FORCE DURING THE 
             CURRENT ITERATION TO VERIFY THAT THE FORCE IS SMALL ENOUGH TO BE 
             TREATED AS ZERO. IF NOT, PLEASE USE THE SOLUTION CONTROLS TO RESET 
             THE CRITERION FOR ZERO FORCE.

  MAXIMUM HALF-INCREMENT FORCE RESIDUAL IS  -2.028E-06 AND OCCURS AT NODE        889 INSTANCE SPIRAL-1                                                                        
          TIME INCREMENT MAY NOW INCREASE TO    1.563E-05

 ITERATION SUMMARY FOR THE INCREMENT:   1 TOTAL ITERATIONS, OF WHICH
   0 ARE SEVERE DISCONTINUITY ITERATIONS AND  1 ARE EQUILIBRIUM ITERATIONS.

 TIME INCREMENT COMPLETED  1.250E-05,  FRACTION OF STEP COMPLETED  4.250E-05
 STEP TIME COMPLETED       4.250E-05,  TOTAL TIME COMPLETED        4.250E-05


  INCREMENT     5 STARTS. ATTEMPT NUMBER  1, TIME INCREMENT  1.563E-05
 
	SYMMETRIC HYBRID DIRECT SPARSE SOLVER RUNNING ON
 	1 HOST x 1 MPI RANK PER HOST x 1 THREAD PER RANK
        NUMBER OF EQUATIONS:  90774
        NUMBER OF RHS:        1
        NUMBER OF FLOPS:      6.037e+09
        SOLVER ELAPSED TIME:  449ms

               CONVERGENCE CHECKS FOR EQUILIBRIUM ITERATION     1


 AVERAGE FORCE                      2.333E-08   TIME AVG. FORCE       1.000E-02
 LARGEST SCALED RESIDUAL FORCE     -1.047E-18   AT NODE       9470   DOF  3
   INSTANCE: SPIRAL-1                                                                        
  CORRESPONDING RESIDUAL FORCE     -1.047E-18
 LARGEST INCREMENT OF DISP.        -1.493E-10   AT NODE      10925   DOF  3
   INSTANCE: SPIRAL-1                                                                        
 LARGEST CORRECTION TO DISP.        1.720E-11   AT NODE       3294   DOF  3
   INSTANCE: SPIRAL-1                                                                        
          THERE IS ZERO FORCE     EVERYWHERE
 

 ***WARNING: THERE IS ZERO FORCE EVERYWHERE IN THE MODEL BASED ON THE DEFAULT 
             CRITERION. PLEASE CHECK THE VALUE OF THE AVERAGE FORCE DURING THE 
             CURRENT ITERATION TO VERIFY THAT THE FORCE IS SMALL ENOUGH TO BE 
             TREATED AS ZERO. IF NOT, PLEASE USE THE SOLUTION CONTROLS TO RESET 
             THE CRITERION FOR ZERO FORCE.

  MAXIMUM HALF-INCREMENT FORCE RESIDUAL IS   2.440E-06 AND OCCURS AT NODE        889 INSTANCE SPIRAL-1                                                                        
          TIME INCREMENT MAY NOW INCREASE TO    1.953E-05

 ITERATION SUMMARY FOR THE INCREMENT:   1 TOTAL ITERATIONS, OF WHICH
   0 ARE SEVERE DISCONTINUITY ITERATIONS AND  1 ARE EQUILIBRIUM ITERATIONS.

 TIME INCREMENT COMPLETED  1.563E-05,  FRACTION OF STEP COMPLETED  5.813E-05
 STEP TIME COMPLETED       5.813E-05,  TOTAL TIME COMPLETED        5.813E-05


  INCREMENT     6 STARTS. ATTEMPT NUMBER  1, TIME INCREMENT  1.953E-05
 
	SYMMETRIC HYBRID DIRECT SPARSE SOLVER RUNNING ON
 	1 HOST x 1 MPI RANK PER HOST x 1 THREAD PER RANK
        NUMBER OF EQUATIONS:  90774
        NUMBER OF RHS:        1
        NUMBER OF FLOPS:      6.037e+09
        SOLVER ELAPSED TIME:  467ms

               CONVERGENCE CHECKS FOR EQUILIBRIUM ITERATION     1


 AVERAGE FORCE                      3.689E-08   TIME AVG. FORCE       1.000E-02
 LARGEST SCALED RESIDUAL FORCE     -1.316E-18   AT NODE      21927   DOF  3
   INSTANCE: SPIRAL-1                                                                        
  CORRESPONDING RESIDUAL FORCE     -1.316E-18
 LARGEST INCREMENT OF DISP.        -2.409E-10   AT NODE      10855   DOF  3
   INSTANCE: SPIRAL-1                                                                        
 LARGEST CORRECTION TO DISP.        2.135E-11   AT NODE      10944   DOF  3
   INSTANCE: SPIRAL-1                                                                        
          THERE IS ZERO FORCE     EVERYWHERE
 

 ***WARNING: THERE IS ZERO FORCE EVERYWHERE IN THE MODEL BASED ON THE DEFAULT 
             CRITERION. PLEASE CHECK THE VALUE OF THE AVERAGE FORCE DURING THE 
             CURRENT ITERATION TO VERIFY THAT THE FORCE IS SMALL ENOUGH TO BE 
             TREATED AS ZERO. IF NOT, PLEASE USE THE SOLUTION CONTROLS TO RESET 
             THE CRITERION FOR ZERO FORCE.

  MAXIMUM HALF-INCREMENT FORCE RESIDUAL IS  -2.898E-06 AND OCCURS AT NODE        889 INSTANCE SPIRAL-1                                                                        
          TIME INCREMENT MAY NOW INCREASE TO    2.441E-05

 ITERATION SUMMARY FOR THE INCREMENT:   1 TOTAL ITERATIONS, OF WHICH
   0 ARE SEVERE DISCONTINUITY ITERATIONS AND  1 ARE EQUILIBRIUM ITERATIONS.

 TIME INCREMENT COMPLETED  1.953E-05,  FRACTION OF STEP COMPLETED  7.766E-05
 STEP TIME COMPLETED       7.766E-05,  TOTAL TIME COMPLETED        7.766E-05


  INCREMENT     7 STARTS. ATTEMPT NUMBER  1, TIME INCREMENT  2.441E-05
 
	SYMMETRIC HYBRID DIRECT SPARSE SOLVER RUNNING ON
 	1 HOST x 1 MPI RANK PER HOST x 1 THREAD PER RANK
        NUMBER OF EQUATIONS:  90774
        NUMBER OF RHS:        1
        NUMBER OF FLOPS:      6.037e+09
        SOLVER ELAPSED TIME:  451ms

               CONVERGENCE CHECKS FOR EQUILIBRIUM ITERATION     1


 AVERAGE FORCE                      5.163E-08   TIME AVG. FORCE       1.000E-02
 LARGEST SCALED RESIDUAL FORCE     -1.828E-18   AT NODE      22618   DOF  3
   INSTANCE: SPIRAL-1                                                                        
  CORRESPONDING RESIDUAL FORCE     -1.828E-18
 LARGEST INCREMENT OF DISP.        -4.031E-10   AT NODE      10850   DOF  3
   INSTANCE: SPIRAL-1                                                                        
 LARGEST CORRECTION TO DISP.       -3.346E-11   AT NODE       3193   DOF  3
   INSTANCE: SPIRAL-1                                                                        
          THERE IS ZERO FORCE     EVERYWHERE
 

 ***WARNING: THERE IS ZERO FORCE EVERYWHERE IN THE MODEL BASED ON THE DEFAULT 
             CRITERION. PLEASE CHECK THE VALUE OF THE AVERAGE FORCE DURING THE 
             CURRENT ITERATION TO VERIFY THAT THE FORCE IS SMALL ENOUGH TO BE 
             TREATED AS ZERO. IF NOT, PLEASE USE THE SOLUTION CONTROLS TO RESET 
             THE CRITERION FOR ZERO FORCE.

  MAXIMUM HALF-INCREMENT FORCE RESIDUAL IS  -3.392E-06 AND OCCURS AT NODE      10519 INSTANCE SPIRAL-1                                                                        
          TIME INCREMENT MAY NOW INCREASE TO    3.052E-05

 ITERATION SUMMARY FOR THE INCREMENT:   1 TOTAL ITERATIONS, OF WHICH
   0 ARE SEVERE DISCONTINUITY ITERATIONS AND  1 ARE EQUILIBRIUM ITERATIONS.

 TIME INCREMENT COMPLETED  2.441E-05,  FRACTION OF STEP COMPLETED  1.021E-04
 STEP TIME COMPLETED       1.021E-04,  TOTAL TIME COMPLETED        1.021E-04


  INCREMENT     8 STARTS. ATTEMPT NUMBER  1, TIME INCREMENT  3.052E-05
 
	SYMMETRIC HYBRID DIRECT SPARSE SOLVER RUNNING ON
 	1 HOST x 1 MPI RANK PER HOST x 1 THREAD PER RANK
        NUMBER OF EQUATIONS:  90774
        NUMBER OF RHS:        1
        NUMBER OF FLOPS:      6.037e+09
        SOLVER ELAPSED TIME:  460ms

               CONVERGENCE CHECKS FOR EQUILIBRIUM ITERATION     1


 AVERAGE FORCE                      6.934E-08   TIME AVG. FORCE       1.000E-02
 LARGEST SCALED RESIDUAL FORCE     -2.879E-18   AT NODE       9462   DOF  3
   INSTANCE: SPIRAL-1                                                                        
  CORRESPONDING RESIDUAL FORCE     -2.879E-18
 LARGEST INCREMENT OF DISP.        -6.615E-10   AT NODE      10652   DOF  3
   INSTANCE: SPIRAL-1                                                                        
 LARGEST CORRECTION TO DISP.       -5.798E-11   AT NODE       3155   DOF  3
   INSTANCE: SPIRAL-1                                                                        
          THERE IS ZERO FORCE     EVERYWHERE
 

 ***WARNING: THERE IS ZERO FORCE EVERYWHERE IN THE MODEL BASED ON THE DEFAULT 
             CRITERION. PLEASE CHECK THE VALUE OF THE AVERAGE FORCE DURING THE 
             CURRENT ITERATION TO VERIFY THAT THE FORCE IS SMALL ENOUGH TO BE 
             TREATED AS ZERO. IF NOT, PLEASE USE THE SOLUTION CONTROLS TO RESET 
             THE CRITERION FOR ZERO FORCE.

  MAXIMUM HALF-INCREMENT FORCE RESIDUAL IS   3.905E-06 AND OCCURS AT NODE      10519 INSTANCE SPIRAL-1                                                                        
          TIME INCREMENT MAY NOW INCREASE TO    3.815E-05

 ITERATION SUMMARY FOR THE INCREMENT:   1 TOTAL ITERATIONS, OF WHICH
   0 ARE SEVERE DISCONTINUITY ITERATIONS AND  1 ARE EQUILIBRIUM ITERATIONS.

 TIME INCREMENT COMPLETED  3.052E-05,  FRACTION OF STEP COMPLETED  1.326E-04
 STEP TIME COMPLETED       1.326E-04,  TOTAL TIME COMPLETED        1.326E-04


  INCREMENT     9 STARTS. ATTEMPT NUMBER  1, TIME INCREMENT  3.815E-05
 
	SYMMETRIC HYBRID DIRECT SPARSE SOLVER RUNNING ON
 	1 HOST x 1 MPI RANK PER HOST x 1 THREAD PER RANK
        NUMBER OF EQUATIONS:  90774
        NUMBER OF RHS:        1
        NUMBER OF FLOPS:      6.037e+09
        SOLVER ELAPSED TIME:  456ms

               CONVERGENCE CHECKS FOR EQUILIBRIUM ITERATION     1


 AVERAGE FORCE                      9.069E-08   TIME AVG. FORCE       1.000E-02
 LARGEST SCALED RESIDUAL FORCE     -6.363E-18   AT NODE      22305   DOF  3
   INSTANCE: SPIRAL-1                                                                        
  CORRESPONDING RESIDUAL FORCE     -6.363E-18
 LARGEST INCREMENT OF DISP.        -1.103E-09   AT NODE      10603   DOF  3
   INSTANCE: SPIRAL-1                                                                        
 LARGEST CORRECTION TO DISP.       -1.693E-10   AT NODE        245   DOF  3
   INSTANCE: SPIRAL-1                                                                        
          THERE IS ZERO FORCE     EVERYWHERE
 

 ***WARNING: THERE IS ZERO FORCE EVERYWHERE IN THE MODEL BASED ON THE DEFAULT 
             CRITERION. PLEASE CHECK THE VALUE OF THE AVERAGE FORCE DURING THE 
             CURRENT ITERATION TO VERIFY THAT THE FORCE IS SMALL ENOUGH TO BE 
             TREATED AS ZERO. IF NOT, PLEASE USE THE SOLUTION CONTROLS TO RESET 
             THE CRITERION FOR ZERO FORCE.

  MAXIMUM HALF-INCREMENT FORCE RESIDUAL IS  -4.402E-06 AND OCCURS AT NODE      10519 INSTANCE SPIRAL-1                                                                        
          TIME INCREMENT MAY NOW INCREASE TO    4.768E-05

 ITERATION SUMMARY FOR THE INCREMENT:   1 TOTAL ITERATIONS, OF WHICH
   0 ARE SEVERE DISCONTINUITY ITERATIONS AND  1 ARE EQUILIBRIUM ITERATIONS.

 TIME INCREMENT COMPLETED  3.815E-05,  FRACTION OF STEP COMPLETED  1.707E-04
 STEP TIME COMPLETED       1.707E-04,  TOTAL TIME COMPLETED        1.707E-04


  INCREMENT    10 STARTS. ATTEMPT NUMBER  1, TIME INCREMENT  4.768E-05
 
	SYMMETRIC HYBRID DIRECT SPARSE SOLVER RUNNING ON
 	1 HOST x 1 MPI RANK PER HOST x 1 THREAD PER RANK
        NUMBER OF EQUATIONS:  90774
        NUMBER OF RHS:        1
        NUMBER OF FLOPS:      6.037e+09
        SOLVER ELAPSED TIME:  444ms

               CONVERGENCE CHECKS FOR EQUILIBRIUM ITERATION     1


 AVERAGE FORCE                      1.110E-07   TIME AVG. FORCE       1.110E-07
 LARGEST SCALED RESIDUAL FORCE      1.017E-17   AT NODE      22319   DOF  3
   INSTANCE: SPIRAL-1                                                                        
  CORRESPONDING RESIDUAL FORCE      1.017E-17
 LARGEST INCREMENT OF DISP.        -1.932E-09   AT NODE        245   DOF  3
   INSTANCE: SPIRAL-1                                                                        
 LARGEST CORRECTION TO DISP.        1.715E-10   AT NODE      10598   DOF  3
   INSTANCE: SPIRAL-1                                                                        
          THE FORCE     EQUILIBRIUM RESPONSE WAS LINEAR IN THIS INCREMENT

  MAXIMUM HALF-INCREMENT FORCE RESIDUAL IS   4.833E-06 AND OCCURS AT NODE      10519 INSTANCE SPIRAL-1                                                                        
          TIME INCREMENT MAY NOW INCREASE TO    5.960E-05

 ITERATION SUMMARY FOR THE INCREMENT:   1 TOTAL ITERATIONS, OF WHICH
   0 ARE SEVERE DISCONTINUITY ITERATIONS AND  1 ARE EQUILIBRIUM ITERATIONS.

 TIME INCREMENT COMPLETED  4.768E-05,  FRACTION OF STEP COMPLETED  2.184E-04
 STEP TIME COMPLETED       2.184E-04,  TOTAL TIME COMPLETED        2.184E-04


  INCREMENT    11 STARTS. ATTEMPT NUMBER  1, TIME INCREMENT  5.960E-05
 
	SYMMETRIC HYBRID DIRECT SPARSE SOLVER RUNNING ON
 	1 HOST x 1 MPI RANK PER HOST x 1 THREAD PER RANK
        NUMBER OF EQUATIONS:  90774
        NUMBER OF RHS:        1
        NUMBER OF FLOPS:      6.037e+09
        SOLVER ELAPSED TIME:  452ms

               CONVERGENCE CHECKS FOR EQUILIBRIUM ITERATION     1


 AVERAGE FORCE                      1.853E-07   TIME AVG. FORCE       1.481E-07
 LARGEST SCALED RESIDUAL FORCE     -1.224E-17   AT NODE       9241   DOF  3
   INSTANCE: SPIRAL-1                                                                        
  CORRESPONDING RESIDUAL FORCE     -1.224E-17
 LARGEST INCREMENT OF DISP.        -3.581E-09   AT NODE       3155   DOF  3
   INSTANCE: SPIRAL-1                                                                        
 LARGEST CORRECTION TO DISP.        1.641E-10   AT NODE       2982   DOF  3
   INSTANCE: SPIRAL-1                                                                        
          THE FORCE     EQUILIBRIUM RESPONSE WAS LINEAR IN THIS INCREMENT

  MAXIMUM HALF-INCREMENT FORCE RESIDUAL IS  -5.124E-06 AND OCCURS AT NODE      10519 INSTANCE SPIRAL-1                                                                        
          TIME INCREMENT MAY NOW INCREASE TO    7.451E-05

 ITERATION SUMMARY FOR THE INCREMENT:   1 TOTAL ITERATIONS, OF WHICH
   0 ARE SEVERE DISCONTINUITY ITERATIONS AND  1 ARE EQUILIBRIUM ITERATIONS.

 TIME INCREMENT COMPLETED  5.960E-05,  FRACTION OF STEP COMPLETED  2.780E-04
 STEP TIME COMPLETED       2.780E-04,  TOTAL TIME COMPLETED        2.780E-04


  INCREMENT    12 STARTS. ATTEMPT NUMBER  1, TIME INCREMENT  7.451E-05
 
	SYMMETRIC HYBRID DIRECT SPARSE SOLVER RUNNING ON
 	1 HOST x 1 MPI RANK PER HOST x 1 THREAD PER RANK
        NUMBER OF EQUATIONS:  90774
        NUMBER OF RHS:        1
        NUMBER OF FLOPS:      6.037e+09
        SOLVER ELAPSED TIME:  451ms

               CONVERGENCE CHECKS FOR EQUILIBRIUM ITERATION     1


 AVERAGE FORCE                      2.147E-07   TIME AVG. FORCE       1.703E-07
 LARGEST SCALED RESIDUAL FORCE     -1.842E-17   AT NODE      22184   DOF  3
   INSTANCE: SPIRAL-1                                                                        
  CORRESPONDING RESIDUAL FORCE     -1.842E-17
 LARGEST INCREMENT OF DISP.        -5.767E-09   AT NODE        248   DOF  3
   INSTANCE: SPIRAL-1                                                                        
 LARGEST CORRECTION TO DISP.        3.359E-10   AT NODE        245   DOF  3
   INSTANCE: SPIRAL-1                                                                        
          THE FORCE     EQUILIBRIUM RESPONSE WAS LINEAR IN THIS INCREMENT

  MAXIMUM HALF-INCREMENT FORCE RESIDUAL IS   5.167E-06 AND OCCURS AT NODE      10519 INSTANCE SPIRAL-1                                                                        
          TIME INCREMENT MAY NOW INCREASE TO    9.313E-05

 ITERATION SUMMARY FOR THE INCREMENT:   1 TOTAL ITERATIONS, OF WHICH
   0 ARE SEVERE DISCONTINUITY ITERATIONS AND  1 ARE EQUILIBRIUM ITERATIONS.

 TIME INCREMENT COMPLETED  7.451E-05,  FRACTION OF STEP COMPLETED  3.525E-04
 STEP TIME COMPLETED       3.525E-04,  TOTAL TIME COMPLETED        3.525E-04


  INCREMENT    13 STARTS. ATTEMPT NUMBER  1, TIME INCREMENT  9.313E-05
 
	SYMMETRIC HYBRID DIRECT SPARSE SOLVER RUNNING ON
 	1 HOST x 1 MPI RANK PER HOST x 1 THREAD PER RANK
        NUMBER OF EQUATIONS:  90774
        NUMBER OF RHS:        1
        NUMBER OF FLOPS:      6.037e+09
        SOLVER ELAPSED TIME:  446ms

               CONVERGENCE CHECKS FOR EQUILIBRIUM ITERATION     1


 AVERAGE FORCE                      2.648E-07   TIME AVG. FORCE       1.939E-07
 LARGEST SCALED RESIDUAL FORCE     -3.184E-17   AT NODE      22192   DOF  3
   INSTANCE: SPIRAL-1                                                                        
  CORRESPONDING RESIDUAL FORCE     -3.184E-17
 LARGEST INCREMENT OF DISP.        -8.798E-09   AT NODE       3156   DOF  3
   INSTANCE: SPIRAL-1                                                                        
 LARGEST CORRECTION TO DISP.       -5.073E-10   AT NODE      10583   DOF  3
   INSTANCE: SPIRAL-1                                                                        
          THE FORCE     EQUILIBRIUM RESPONSE WAS LINEAR IN THIS INCREMENT

  MAXIMUM HALF-INCREMENT FORCE RESIDUAL IS  -4.808E-06 AND OCCURS AT NODE      10519 INSTANCE SPIRAL-1                                                                        
          TIME INCREMENT MAY NOW INCREASE TO    1.164E-04

 ITERATION SUMMARY FOR THE INCREMENT:   1 TOTAL ITERATIONS, OF WHICH
   0 ARE SEVERE DISCONTINUITY ITERATIONS AND  1 ARE EQUILIBRIUM ITERATIONS.

 TIME INCREMENT COMPLETED  9.313E-05,  FRACTION OF STEP COMPLETED  4.457E-04
 STEP TIME COMPLETED       4.457E-04,  TOTAL TIME COMPLETED        4.457E-04


  INCREMENT    14 STARTS. ATTEMPT NUMBER  1, TIME INCREMENT  1.164E-04
 
	SYMMETRIC HYBRID DIRECT SPARSE SOLVER RUNNING ON
 	1 HOST x 1 MPI RANK PER HOST x 1 THREAD PER RANK
        NUMBER OF EQUATIONS:  90774
        NUMBER OF RHS:        1
        NUMBER OF FLOPS:      6.037e+09
        SOLVER ELAPSED TIME:  455ms

               CONVERGENCE CHECKS FOR EQUILIBRIUM ITERATION     1


 AVERAGE FORCE                      3.676E-07   TIME AVG. FORCE       2.287E-07
 LARGEST SCALED RESIDUAL FORCE      4.639E-17   AT NODE       9705   DOF  3
   INSTANCE: SPIRAL-1                                                                        
  CORRESPONDING RESIDUAL FORCE      4.639E-17
 LARGEST INCREMENT OF DISP.        -1.310E-08   AT NODE        248   DOF  3
   INSTANCE: SPIRAL-1                                                                        
 LARGEST CORRECTION TO DISP.       -7.347E-10   AT NODE        137   DOF  2
   INSTANCE: SPIRAL-1                                                                        
          THE FORCE     EQUILIBRIUM RESPONSE WAS LINEAR IN THIS INCREMENT

  MAXIMUM HALF-INCREMENT FORCE RESIDUAL IS   3.837E-06 AND OCCURS AT NODE      10519 INSTANCE SPIRAL-1                                                                        
          TIME INCREMENT MAY NOW INCREASE TO    1.455E-04

 ITERATION SUMMARY FOR THE INCREMENT:   1 TOTAL ITERATIONS, OF WHICH
   0 ARE SEVERE DISCONTINUITY ITERATIONS AND  1 ARE EQUILIBRIUM ITERATIONS.

 TIME INCREMENT COMPLETED  1.164E-04,  FRACTION OF STEP COMPLETED  5.621E-04
 STEP TIME COMPLETED       5.621E-04,  TOTAL TIME COMPLETED        5.621E-04


  INCREMENT    15 STARTS. ATTEMPT NUMBER  1, TIME INCREMENT  1.455E-04
 
	SYMMETRIC HYBRID DIRECT SPARSE SOLVER RUNNING ON
 	1 HOST x 1 MPI RANK PER HOST x 1 THREAD PER RANK
        NUMBER OF EQUATIONS:  90774
        NUMBER OF RHS:        1
        NUMBER OF FLOPS:      6.037e+09
        SOLVER ELAPSED TIME:  455ms

               CONVERGENCE CHECKS FOR EQUILIBRIUM ITERATION     1


 AVERAGE FORCE                      4.989E-07   TIME AVG. FORCE       2.737E-07
 LARGEST SCALED RESIDUAL FORCE     -6.180E-17   AT NODE       9489   DOF  3
   INSTANCE: SPIRAL-1                                                                        
  CORRESPONDING RESIDUAL FORCE     -6.180E-17
 LARGEST INCREMENT OF DISP.        -1.837E-08   AT NODE        245   DOF  3
   INSTANCE: SPIRAL-1                                                                        
 LARGEST CORRECTION TO DISP.        8.357E-10   AT NODE        245   DOF  3
   INSTANCE: SPIRAL-1                                                                        
          THE FORCE     EQUILIBRIUM RESPONSE WAS LINEAR IN THIS INCREMENT

  MAXIMUM HALF-INCREMENT FORCE RESIDUAL IS  -1.969E-06 AND OCCURS AT NODE      10519 INSTANCE SPIRAL-1                                                                        
          TIME INCREMENT MAY NOW INCREASE TO    1.819E-04

 ITERATION SUMMARY FOR THE INCREMENT:   1 TOTAL ITERATIONS, OF WHICH
   0 ARE SEVERE DISCONTINUITY ITERATIONS AND  1 ARE EQUILIBRIUM ITERATIONS.

 TIME INCREMENT COMPLETED  1.455E-04,  FRACTION OF STEP COMPLETED  7.076E-04
 STEP TIME COMPLETED       7.076E-04,  TOTAL TIME COMPLETED        7.076E-04


  INCREMENT    16 STARTS. ATTEMPT NUMBER  1, TIME INCREMENT  1.819E-04
 
	SYMMETRIC HYBRID DIRECT SPARSE SOLVER RUNNING ON
 	1 HOST x 1 MPI RANK PER HOST x 1 THREAD PER RANK
        NUMBER OF EQUATIONS:  90774
        NUMBER OF RHS:        1
        NUMBER OF FLOPS:      6.037e+09
        SOLVER ELAPSED TIME:  458ms

               CONVERGENCE CHECKS FOR EQUILIBRIUM ITERATION     1


 AVERAGE FORCE                      6.019E-07   TIME AVG. FORCE       3.206E-07
 LARGEST SCALED RESIDUAL FORCE      1.043E-16   AT NODE      22342   DOF  3
   INSTANCE: SPIRAL-1                                                                        
  CORRESPONDING RESIDUAL FORCE      1.043E-16
 LARGEST INCREMENT OF DISP.        -2.672E-08   AT NODE       3156   DOF  3
   INSTANCE: SPIRAL-1                                                                        
 LARGEST CORRECTION TO DISP.       -1.697E-09   AT NODE      10720   DOF  3
   INSTANCE: SPIRAL-1                                                                        
          THE FORCE     EQUILIBRIUM RESPONSE WAS LINEAR IN THIS INCREMENT

  MAXIMUM HALF-INCREMENT FORCE RESIDUAL IS   1.963E-06 AND OCCURS AT NODE      21873 INSTANCE SPIRAL-1                                                                        
          TIME INCREMENT MAY NOW INCREASE TO    2.274E-04

 ITERATION SUMMARY FOR THE INCREMENT:   1 TOTAL ITERATIONS, OF WHICH
   0 ARE SEVERE DISCONTINUITY ITERATIONS AND  1 ARE EQUILIBRIUM ITERATIONS.

 TIME INCREMENT COMPLETED  1.819E-04,  FRACTION OF STEP COMPLETED  8.895E-04
 STEP TIME COMPLETED       8.895E-04,  TOTAL TIME COMPLETED        8.895E-04


  INCREMENT    17 STARTS. ATTEMPT NUMBER  1, TIME INCREMENT  2.274E-04
 
	SYMMETRIC HYBRID DIRECT SPARSE SOLVER RUNNING ON
 	1 HOST x 1 MPI RANK PER HOST x 1 THREAD PER RANK
        NUMBER OF EQUATIONS:  90774
        NUMBER OF RHS:        1
        NUMBER OF FLOPS:      6.037e+09
        SOLVER ELAPSED TIME:  456ms

               CONVERGENCE CHECKS FOR EQUILIBRIUM ITERATION     1


 AVERAGE FORCE                      5.792E-07   TIME AVG. FORCE       3.529E-07
 LARGEST SCALED RESIDUAL FORCE     -1.762E-16   AT NODE      22095   DOF  3
   INSTANCE: SPIRAL-1                                                                        
  CORRESPONDING RESIDUAL FORCE     -1.762E-16
 LARGEST INCREMENT OF DISP.        -4.118E-08   AT NODE        248   DOF  3
   INSTANCE: SPIRAL-1                                                                        
 LARGEST CORRECTION TO DISP.        1.466E-09   AT NODE       3874   DOF  3
   INSTANCE: SPIRAL-1                                                                        
          THE FORCE     EQUILIBRIUM RESPONSE WAS LINEAR IN THIS INCREMENT

  MAXIMUM HALF-INCREMENT FORCE RESIDUAL IS  -6.715E-06 AND OCCURS AT NODE      21919 INSTANCE SPIRAL-1                                                                        
          TIME INCREMENT MAY NOW INCREASE TO    2.842E-04

 ITERATION SUMMARY FOR THE INCREMENT:   1 TOTAL ITERATIONS, OF WHICH
   0 ARE SEVERE DISCONTINUITY ITERATIONS AND  1 ARE EQUILIBRIUM ITERATIONS.

 TIME INCREMENT COMPLETED  2.274E-04,  FRACTION OF STEP COMPLETED  1.117E-03
 STEP TIME COMPLETED       1.117E-03,  TOTAL TIME COMPLETED        1.117E-03


  INCREMENT    18 STARTS. ATTEMPT NUMBER  1, TIME INCREMENT  2.842E-04
 
	SYMMETRIC HYBRID DIRECT SPARSE SOLVER RUNNING ON
 	1 HOST x 1 MPI RANK PER HOST x 1 THREAD PER RANK
        NUMBER OF EQUATIONS:  90774
        NUMBER OF RHS:        1
        NUMBER OF FLOPS:      6.037e+09
        SOLVER ELAPSED TIME:  461ms

               CONVERGENCE CHECKS FOR EQUILIBRIUM ITERATION     1


 AVERAGE FORCE                      4.048E-07   TIME AVG. FORCE       3.587E-07
 LARGEST SCALED RESIDUAL FORCE     -1.946E-16   AT NODE       2099   DOF  3
   INSTANCE: SPIRAL-1                                                                        
  CORRESPONDING RESIDUAL FORCE     -1.946E-16
 LARGEST INCREMENT OF DISP.        -6.217E-08   AT NODE        245   DOF  3
   INSTANCE: SPIRAL-1                                                                        
 LARGEST CORRECTION TO DISP.       -4.153E-09   AT NODE      10643   DOF  3
   INSTANCE: SPIRAL-1                                                                        
          THE FORCE     EQUILIBRIUM RESPONSE WAS LINEAR IN THIS INCREMENT

  MAXIMUM HALF-INCREMENT FORCE RESIDUAL IS   1.408E-05 AND OCCURS AT NODE      21919 INSTANCE SPIRAL-1                                                                        
          TIME INCREMENT MAY NOW INCREASE TO    3.553E-04

 ITERATION SUMMARY FOR THE INCREMENT:   1 TOTAL ITERATIONS, OF WHICH
   0 ARE SEVERE DISCONTINUITY ITERATIONS AND  1 ARE EQUILIBRIUM ITERATIONS.

 TIME INCREMENT COMPLETED  2.842E-04,  FRACTION OF STEP COMPLETED  1.401E-03
 STEP TIME COMPLETED       1.401E-03,  TOTAL TIME COMPLETED        1.401E-03


  INCREMENT    19 STARTS. ATTEMPT NUMBER  1, TIME INCREMENT  3.553E-04
 
	SYMMETRIC HYBRID DIRECT SPARSE SOLVER RUNNING ON
 	1 HOST x 1 MPI RANK PER HOST x 1 THREAD PER RANK
        NUMBER OF EQUATIONS:  90774
        NUMBER OF RHS:        1
        NUMBER OF FLOPS:      6.037e+09
        SOLVER ELAPSED TIME:  450ms

               CONVERGENCE CHECKS FOR EQUILIBRIUM ITERATION     1


 AVERAGE FORCE                      3.178E-07   TIME AVG. FORCE       3.546E-07
 LARGEST SCALED RESIDUAL FORCE     -5.338E-16   AT NODE       9476   DOF  3
   INSTANCE: SPIRAL-1                                                                        
  CORRESPONDING RESIDUAL FORCE     -5.338E-16
 LARGEST INCREMENT OF DISP.        -9.765E-08   AT NODE       3155   DOF  3
   INSTANCE: SPIRAL-1                                                                        
 LARGEST CORRECTION TO DISP.       -4.907E-09   AT NODE      10711   DOF  3
   INSTANCE: SPIRAL-1                                                                        
          THE FORCE     EQUILIBRIUM RESPONSE WAS LINEAR IN THIS INCREMENT

  MAXIMUM HALF-INCREMENT FORCE RESIDUAL IS  -2.469E-05 AND OCCURS AT NODE      21919 INSTANCE SPIRAL-1                                                                        
          TIME INCREMENT MAY NOW INCREASE TO    4.441E-04

 ITERATION SUMMARY FOR THE INCREMENT:   1 TOTAL ITERATIONS, OF WHICH
   0 ARE SEVERE DISCONTINUITY ITERATIONS AND  1 ARE EQUILIBRIUM ITERATIONS.

 TIME INCREMENT COMPLETED  3.553E-04,  FRACTION OF STEP COMPLETED  1.756E-03
 STEP TIME COMPLETED       1.756E-03,  TOTAL TIME COMPLETED        1.756E-03


  INCREMENT    20 STARTS. ATTEMPT NUMBER  1, TIME INCREMENT  4.441E-04
 
	SYMMETRIC HYBRID DIRECT SPARSE SOLVER RUNNING ON
 	1 HOST x 1 MPI RANK PER HOST x 1 THREAD PER RANK
        NUMBER OF EQUATIONS:  90774
        NUMBER OF RHS:        1
        NUMBER OF FLOPS:      6.037e+09
        SOLVER ELAPSED TIME:  457ms

               CONVERGENCE CHECKS FOR EQUILIBRIUM ITERATION     1


 AVERAGE FORCE                      4.098E-07   TIME AVG. FORCE       3.596E-07
 LARGEST SCALED RESIDUAL FORCE      6.496E-16   AT NODE      22192   DOF  3
   INSTANCE: SPIRAL-1                                                                        
  CORRESPONDING RESIDUAL FORCE      6.496E-16
 LARGEST INCREMENT OF DISP.        -1.608E-07   AT NODE       3156   DOF  3
   INSTANCE: SPIRAL-1                                                                        
 LARGEST CORRECTION TO DISP.       -7.188E-09   AT NODE        205   DOF  3
   INSTANCE: SPIRAL-1                                                                        
          THE FORCE     EQUILIBRIUM RESPONSE WAS LINEAR IN THIS INCREMENT

  MAXIMUM HALF-INCREMENT FORCE RESIDUAL IS   3.974E-05 AND OCCURS AT NODE        889 INSTANCE SPIRAL-1                                                                        
          TIME INCREMENT MAY NOW INCREASE TO    5.551E-04

 ITERATION SUMMARY FOR THE INCREMENT:   1 TOTAL ITERATIONS, OF WHICH
   0 ARE SEVERE DISCONTINUITY ITERATIONS AND  1 ARE EQUILIBRIUM ITERATIONS.

 TIME INCREMENT COMPLETED  4.441E-04,  FRACTION OF STEP COMPLETED  2.200E-03
 STEP TIME COMPLETED       2.200E-03,  TOTAL TIME COMPLETED        2.200E-03


  INCREMENT    21 STARTS. ATTEMPT NUMBER  1, TIME INCREMENT  5.551E-04
 
	SYMMETRIC HYBRID DIRECT SPARSE SOLVER RUNNING ON
 	1 HOST x 1 MPI RANK PER HOST x 1 THREAD PER RANK
        NUMBER OF EQUATIONS:  90774
        NUMBER OF RHS:        1
        NUMBER OF FLOPS:      6.037e+09
        SOLVER ELAPSED TIME:  449ms

               CONVERGENCE CHECKS FOR EQUILIBRIUM ITERATION     1


 AVERAGE FORCE                      5.467E-07   TIME AVG. FORCE       3.752E-07
 LARGEST SCALED RESIDUAL FORCE      8.784E-16   AT NODE       9462   DOF  3
   INSTANCE: SPIRAL-1                                                                        
  CORRESPONDING RESIDUAL FORCE      8.784E-16
 LARGEST INCREMENT OF DISP.        -2.529E-07   AT NODE       3156   DOF  3
   INSTANCE: SPIRAL-1                                                                        
 LARGEST CORRECTION TO DISP.        1.039E-08   AT NODE        248   DOF  3
   INSTANCE: SPIRAL-1                                                                        
          THE FORCE     EQUILIBRIUM RESPONSE WAS LINEAR IN THIS INCREMENT

  MAXIMUM HALF-INCREMENT FORCE RESIDUAL IS  -6.076E-05 AND OCCURS AT NODE        889 INSTANCE SPIRAL-1                                                                        
          TIME INCREMENT MAY NOW INCREASE TO    6.939E-04

 ITERATION SUMMARY FOR THE INCREMENT:   1 TOTAL ITERATIONS, OF WHICH
   0 ARE SEVERE DISCONTINUITY ITERATIONS AND  1 ARE EQUILIBRIUM ITERATIONS.

 TIME INCREMENT COMPLETED  5.551E-04,  FRACTION OF STEP COMPLETED  2.756E-03
 STEP TIME COMPLETED       2.756E-03,  TOTAL TIME COMPLETED        2.756E-03


  INCREMENT    22 STARTS. ATTEMPT NUMBER  1, TIME INCREMENT  6.939E-04
 
	SYMMETRIC HYBRID DIRECT SPARSE SOLVER RUNNING ON
 	1 HOST x 1 MPI RANK PER HOST x 1 THREAD PER RANK
        NUMBER OF EQUATIONS:  90774
        NUMBER OF RHS:        1
        NUMBER OF FLOPS:      6.037e+09
        SOLVER ELAPSED TIME:  443ms

               CONVERGENCE CHECKS FOR EQUILIBRIUM ITERATION     1


 AVERAGE FORCE                      7.644E-07   TIME AVG. FORCE       4.051E-07
 LARGEST SCALED RESIDUAL FORCE      1.394E-15   AT NODE       9776   DOF  3
   INSTANCE: SPIRAL-1                                                                        
  CORRESPONDING RESIDUAL FORCE      1.394E-15
 LARGEST INCREMENT OF DISP.        -3.888E-07   AT NODE       3156   DOF  3
   INSTANCE: SPIRAL-1                                                                        
 LARGEST CORRECTION TO DISP.        1.799E-08   AT NODE        192   DOF  3
   INSTANCE: SPIRAL-1                                                                        
          THE FORCE     EQUILIBRIUM RESPONSE WAS LINEAR IN THIS INCREMENT

  MAXIMUM HALF-INCREMENT FORCE RESIDUAL IS   8.934E-05 AND OCCURS AT NODE        889 INSTANCE SPIRAL-1                                                                        
          TIME INCREMENT MAY NOW INCREASE TO    8.674E-04

 ITERATION SUMMARY FOR THE INCREMENT:   1 TOTAL ITERATIONS, OF WHICH
   0 ARE SEVERE DISCONTINUITY ITERATIONS AND  1 ARE EQUILIBRIUM ITERATIONS.

 TIME INCREMENT COMPLETED  6.939E-04,  FRACTION OF STEP COMPLETED  3.449E-03
 STEP TIME COMPLETED       3.449E-03,  TOTAL TIME COMPLETED        3.449E-03


  INCREMENT    23 STARTS. ATTEMPT NUMBER  1, TIME INCREMENT  8.674E-04
 
	SYMMETRIC HYBRID DIRECT SPARSE SOLVER RUNNING ON
 	1 HOST x 1 MPI RANK PER HOST x 1 THREAD PER RANK
        NUMBER OF EQUATIONS:  90774
        NUMBER OF RHS:        1
        NUMBER OF FLOPS:      6.037e+09
        SOLVER ELAPSED TIME:  451ms

               CONVERGENCE CHECKS FOR EQUILIBRIUM ITERATION     1


 AVERAGE FORCE                      5.005E-07   TIME AVG. FORCE       4.120E-07
 LARGEST SCALED RESIDUAL FORCE      2.533E-15   AT NODE       1784   DOF  3
   INSTANCE: SPIRAL-1                                                                        
  CORRESPONDING RESIDUAL FORCE      2.533E-15
 LARGEST INCREMENT OF DISP.        -6.018E-07   AT NODE        245   DOF  3
   INSTANCE: SPIRAL-1                                                                        
 LARGEST CORRECTION TO DISP.       -1.143E-08   AT NODE      10640   DOF  3
   INSTANCE: SPIRAL-1                                                                        
          THE FORCE     EQUILIBRIUM RESPONSE WAS LINEAR IN THIS INCREMENT

  MAXIMUM HALF-INCREMENT FORCE RESIDUAL IS  -1.277E-04 AND OCCURS AT NODE        889 INSTANCE SPIRAL-1                                                                        
          TIME INCREMENT MAY NOW INCREASE TO    1.084E-03

 ITERATION SUMMARY FOR THE INCREMENT:   1 TOTAL ITERATIONS, OF WHICH
   0 ARE SEVERE DISCONTINUITY ITERATIONS AND  1 ARE EQUILIBRIUM ITERATIONS.

 TIME INCREMENT COMPLETED  8.674E-04,  FRACTION OF STEP COMPLETED  4.317E-03
 STEP TIME COMPLETED       4.317E-03,  TOTAL TIME COMPLETED        4.317E-03


  INCREMENT    24 STARTS. ATTEMPT NUMBER  1, TIME INCREMENT  1.084E-03
 
	SYMMETRIC HYBRID DIRECT SPARSE SOLVER RUNNING ON
 	1 HOST x 1 MPI RANK PER HOST x 1 THREAD PER RANK
        NUMBER OF EQUATIONS:  90774
        NUMBER OF RHS:        1
        NUMBER OF FLOPS:      6.037e+09
        SOLVER ELAPSED TIME:  454ms

               CONVERGENCE CHECKS FOR EQUILIBRIUM ITERATION     1


 AVERAGE FORCE                      4.518E-07   TIME AVG. FORCE       4.146E-07
 LARGEST SCALED RESIDUAL FORCE      3.451E-15   AT NODE      23392   DOF  3
   INSTANCE: SPIRAL-1                                                                        
  CORRESPONDING RESIDUAL FORCE      3.451E-15
 LARGEST INCREMENT OF DISP.        -9.433E-07   AT NODE       3156   DOF  3
   INSTANCE: SPIRAL-1                                                                        
 LARGEST CORRECTION TO DISP.       -2.390E-08   AT NODE        317   DOF  3
   INSTANCE: SPIRAL-1                                                                        
          THE FORCE     EQUILIBRIUM RESPONSE WAS LINEAR IN THIS INCREMENT

  MAXIMUM HALF-INCREMENT FORCE RESIDUAL IS   1.784E-04 AND OCCURS AT NODE        889 INSTANCE SPIRAL-1                                                                        
          TIME INCREMENT MAY NOW INCREASE TO    1.355E-03

 ITERATION SUMMARY FOR THE INCREMENT:   1 TOTAL ITERATIONS, OF WHICH
   0 ARE SEVERE DISCONTINUITY ITERATIONS AND  1 ARE EQUILIBRIUM ITERATIONS.

 TIME INCREMENT COMPLETED  1.084E-03,  FRACTION OF STEP COMPLETED  5.401E-03
 STEP TIME COMPLETED       5.401E-03,  TOTAL TIME COMPLETED        5.401E-03


  INCREMENT    25 STARTS. ATTEMPT NUMBER  1, TIME INCREMENT  1.355E-03
 
	SYMMETRIC HYBRID DIRECT SPARSE SOLVER RUNNING ON
 	1 HOST x 1 MPI RANK PER HOST x 1 THREAD PER RANK
        NUMBER OF EQUATIONS:  90774
        NUMBER OF RHS:        1
        NUMBER OF FLOPS:      6.037e+09
        SOLVER ELAPSED TIME:  454ms

               CONVERGENCE CHECKS FOR EQUILIBRIUM ITERATION     1


 AVERAGE FORCE                      7.389E-07   TIME AVG. FORCE       4.349E-07
 LARGEST SCALED RESIDUAL FORCE      1.027E-14   AT NODE       9497   DOF  3
   INSTANCE: SPIRAL-1                                                                        
  CORRESPONDING RESIDUAL FORCE      1.027E-14
 LARGEST INCREMENT OF DISP.        -1.477E-06   AT NODE       3156   DOF  3
   INSTANCE: SPIRAL-1                                                                        
 LARGEST CORRECTION TO DISP.       -4.294E-08   AT NODE       2253   DOF  3
   INSTANCE: SPIRAL-1                                                                        
 ESTIMATE OF DISP.    CORRECTION   -2.902E-18
          FORCE     EQUILIB. ACCEPTED BASED ON SMALL RESIDUAL AND ESTIMATED CORRECTION

  MAXIMUM HALF-INCREMENT FORCE RESIDUAL IS  -2.448E-04 AND OCCURS AT NODE        889 INSTANCE SPIRAL-1                                                                        
          TIME INCREMENT MAY NOW INCREASE TO    1.694E-03

 ITERATION SUMMARY FOR THE INCREMENT:   1 TOTAL ITERATIONS, OF WHICH
   0 ARE SEVERE DISCONTINUITY ITERATIONS AND  1 ARE EQUILIBRIUM ITERATIONS.

 TIME INCREMENT COMPLETED  1.355E-03,  FRACTION OF STEP COMPLETED  6.756E-03
 STEP TIME COMPLETED       6.756E-03,  TOTAL TIME COMPLETED        6.756E-03


  INCREMENT    26 STARTS. ATTEMPT NUMBER  1, TIME INCREMENT  1.694E-03
 
	SYMMETRIC HYBRID DIRECT SPARSE SOLVER RUNNING ON
 	1 HOST x 1 MPI RANK PER HOST x 1 THREAD PER RANK
        NUMBER OF EQUATIONS:  90774
        NUMBER OF RHS:        1
        NUMBER OF FLOPS:      6.037e+09
        SOLVER ELAPSED TIME:  442ms

               CONVERGENCE CHECKS FOR EQUILIBRIUM ITERATION     1


 AVERAGE FORCE                      7.238E-07   TIME AVG. FORCE       4.519E-07
 LARGEST SCALED RESIDUAL FORCE     -8.806E-15   AT NODE      22321   DOF  3
   INSTANCE: SPIRAL-1                                                                        
  CORRESPONDING RESIDUAL FORCE     -8.806E-15
 LARGEST INCREMENT OF DISP.        -2.290E-06   AT NODE       3156   DOF  3
   INSTANCE: SPIRAL-1                                                                        
 LARGEST CORRECTION TO DISP.       -3.266E-08   AT NODE        192   DOF  3
   INSTANCE: SPIRAL-1                                                                        
 ESTIMATE OF DISP.    CORRECTION   -1.724E-18
          FORCE     EQUILIB. ACCEPTED BASED ON SMALL RESIDUAL AND ESTIMATED CORRECTION

  MAXIMUM HALF-INCREMENT FORCE RESIDUAL IS   3.308E-04 AND OCCURS AT NODE        889 INSTANCE SPIRAL-1                                                                        
          TIME INCREMENT MAY NOW INCREASE TO    2.007E-03

 ITERATION SUMMARY FOR THE INCREMENT:   1 TOTAL ITERATIONS, OF WHICH
   0 ARE SEVERE DISCONTINUITY ITERATIONS AND  1 ARE EQUILIBRIUM ITERATIONS.

 TIME INCREMENT COMPLETED  1.694E-03,  FRACTION OF STEP COMPLETED  8.450E-03
 STEP TIME COMPLETED       8.450E-03,  TOTAL TIME COMPLETED        8.450E-03


  INCREMENT    27 STARTS. ATTEMPT NUMBER  1, TIME INCREMENT  2.007E-03
 
	SYMMETRIC HYBRID DIRECT SPARSE SOLVER RUNNING ON
 	1 HOST x 1 MPI RANK PER HOST x 1 THREAD PER RANK
        NUMBER OF EQUATIONS:  90774
        NUMBER OF RHS:        1
        NUMBER OF FLOPS:      6.037e+09
        SOLVER ELAPSED TIME:  460ms

               CONVERGENCE CHECKS FOR EQUILIBRIUM ITERATION     1


 AVERAGE FORCE                      1.205E-06   TIME AVG. FORCE       4.937E-07
 LARGEST SCALED RESIDUAL FORCE      1.087E-14   AT NODE      22195   DOF  3
   INSTANCE: SPIRAL-1                                                                        
  CORRESPONDING RESIDUAL FORCE      1.087E-14
 LARGEST INCREMENT OF DISP.        -3.364E-06   AT NODE       3156   DOF  3
   INSTANCE: SPIRAL-1                                                                        
 LARGEST CORRECTION TO DISP.       -4.899E-08   AT NODE        333   DOF  3
   INSTANCE: SPIRAL-1                                                                        
 ESTIMATE OF DISP.    CORRECTION   -3.273E-18
          FORCE     EQUILIB. ACCEPTED BASED ON SMALL RESIDUAL AND ESTIMATED CORRECTION

  MAXIMUM HALF-INCREMENT FORCE RESIDUAL IS  -3.974E-04 AND OCCURS AT NODE        889 INSTANCE SPIRAL-1                                                                        

 ITERATION SUMMARY FOR THE INCREMENT:   1 TOTAL ITERATIONS, OF WHICH
   0 ARE SEVERE DISCONTINUITY ITERATIONS AND  1 ARE EQUILIBRIUM ITERATIONS.

 TIME INCREMENT COMPLETED  2.007E-03,  FRACTION OF STEP COMPLETED  1.046E-02
 STEP TIME COMPLETED       1.046E-02,  TOTAL TIME COMPLETED        1.046E-02


  INCREMENT    28 STARTS. ATTEMPT NUMBER  1, TIME INCREMENT  2.007E-03
 
	SYMMETRIC HYBRID DIRECT SPARSE SOLVER RUNNING ON
 	1 HOST x 1 MPI RANK PER HOST x 1 THREAD PER RANK
        NUMBER OF EQUATIONS:  90774
        NUMBER OF RHS:        1
        NUMBER OF FLOPS:      6.037e+09
        SOLVER ELAPSED TIME:  460ms

               CONVERGENCE CHECKS FOR EQUILIBRIUM ITERATION     1


 AVERAGE FORCE                      1.641E-06   TIME AVG. FORCE       5.541E-07
 LARGEST SCALED RESIDUAL FORCE     -1.362E-14   AT NODE      10296   DOF  3
   INSTANCE: SPIRAL-1                                                                        
  CORRESPONDING RESIDUAL FORCE     -1.362E-14
 LARGEST INCREMENT OF DISP.        -4.035E-06   AT NODE       3156   DOF  3
   INSTANCE: SPIRAL-1                                                                        
 LARGEST CORRECTION TO DISP.        4.681E-08   AT NODE       3156   DOF  3
   INSTANCE: SPIRAL-1                                                                        
 ESTIMATE OF DISP.    CORRECTION    5.246E-18
          FORCE     EQUILIB. ACCEPTED BASED ON SMALL RESIDUAL AND ESTIMATED CORRECTION

  MAXIMUM HALF-INCREMENT FORCE RESIDUAL IS   3.403E-04 AND OCCURS AT NODE        889 INSTANCE SPIRAL-1                                                                        
          TIME INCREMENT MAY NOW INCREASE TO    2.363E-03

 ITERATION SUMMARY FOR THE INCREMENT:   1 TOTAL ITERATIONS, OF WHICH
   0 ARE SEVERE DISCONTINUITY ITERATIONS AND  1 ARE EQUILIBRIUM ITERATIONS.

 TIME INCREMENT COMPLETED  2.007E-03,  FRACTION OF STEP COMPLETED  1.246E-02
 STEP TIME COMPLETED       1.246E-02,  TOTAL TIME COMPLETED        1.246E-02


  INCREMENT    29 STARTS. ATTEMPT NUMBER  1, TIME INCREMENT  2.363E-03
 
	SYMMETRIC HYBRID DIRECT SPARSE SOLVER RUNNING ON
 	1 HOST x 1 MPI RANK PER HOST x 1 THREAD PER RANK
        NUMBER OF EQUATIONS:  90774
        NUMBER OF RHS:        1
        NUMBER OF FLOPS:      6.037e+09
        SOLVER ELAPSED TIME:  451ms

               CONVERGENCE CHECKS FOR EQUILIBRIUM ITERATION     1


 AVERAGE FORCE                      2.131E-06   TIME AVG. FORCE       6.330E-07
 LARGEST SCALED RESIDUAL FORCE      2.733E-14   AT NODE       2104   DOF  3
   INSTANCE: SPIRAL-1                                                                        
  CORRESPONDING RESIDUAL FORCE      2.733E-14
 LARGEST INCREMENT OF DISP.        -5.590E-06   AT NODE       3156   DOF  3
   INSTANCE: SPIRAL-1                                                                        
 LARGEST CORRECTION TO DISP.       -6.886E-08   AT NODE       3874   DOF  3
   INSTANCE: SPIRAL-1                                                                        
 ESTIMATE OF DISP.    CORRECTION   -1.498E-17
          FORCE     EQUILIB. ACCEPTED BASED ON SMALL RESIDUAL AND ESTIMATED CORRECTION

  MAXIMUM HALF-INCREMENT FORCE RESIDUAL IS  -3.988E-04 AND OCCURS AT NODE        889 INSTANCE SPIRAL-1                                                                        
          TIME INCREMENT MAY NOW INCREASE TO    2.832E-03

 ITERATION SUMMARY FOR THE INCREMENT:   1 TOTAL ITERATIONS, OF WHICH
   0 ARE SEVERE DISCONTINUITY ITERATIONS AND  1 ARE EQUILIBRIUM ITERATIONS.

 TIME INCREMENT COMPLETED  2.363E-03,  FRACTION OF STEP COMPLETED  1.483E-02
 STEP TIME COMPLETED       1.483E-02,  TOTAL TIME COMPLETED        1.483E-02


  INCREMENT    30 STARTS. ATTEMPT NUMBER  1, TIME INCREMENT  2.832E-03
 
	SYMMETRIC HYBRID DIRECT SPARSE SOLVER RUNNING ON
 	1 HOST x 1 MPI RANK PER HOST x 1 THREAD PER RANK
        NUMBER OF EQUATIONS:  90774
        NUMBER OF RHS:        1
        NUMBER OF FLOPS:      6.037e+09
        SOLVER ELAPSED TIME:  454ms

               CONVERGENCE CHECKS FOR EQUILIBRIUM ITERATION     1


 AVERAGE FORCE                      3.190E-06   TIME AVG. FORCE       7.547E-07
 LARGEST SCALED RESIDUAL FORCE     -3.750E-14   AT NODE      22223   DOF  3
   INSTANCE: SPIRAL-1                                                                        
  CORRESPONDING RESIDUAL FORCE     -3.750E-14
 LARGEST INCREMENT OF DISP.        -7.867E-06   AT NODE       3156   DOF  3
   INSTANCE: SPIRAL-1                                                                        
 LARGEST CORRECTION TO DISP.       -7.714E-08   AT NODE        150   DOF  3
   INSTANCE: SPIRAL-1                                                                        
          THE FORCE     EQUILIBRIUM EQUATIONS HAVE CONVERGED

  MAXIMUM HALF-INCREMENT FORCE RESIDUAL IS   4.793E-04 AND OCCURS AT NODE        889 INSTANCE SPIRAL-1                                                                        
          TIME INCREMENT MAY NOW INCREASE TO    3.540E-03

 ITERATION SUMMARY FOR THE INCREMENT:   1 TOTAL ITERATIONS, OF WHICH
   0 ARE SEVERE DISCONTINUITY ITERATIONS AND  1 ARE EQUILIBRIUM ITERATIONS.

 TIME INCREMENT COMPLETED  2.832E-03,  FRACTION OF STEP COMPLETED  1.766E-02
 STEP TIME COMPLETED       1.766E-02,  TOTAL TIME COMPLETED        1.766E-02


  INCREMENT    31 STARTS. ATTEMPT NUMBER  1, TIME INCREMENT  3.540E-03
 
	SYMMETRIC HYBRID DIRECT SPARSE SOLVER RUNNING ON
 	1 HOST x 1 MPI RANK PER HOST x 1 THREAD PER RANK
        NUMBER OF EQUATIONS:  90774
        NUMBER OF RHS:        1
        NUMBER OF FLOPS:      6.037e+09
        SOLVER ELAPSED TIME:  458ms

               CONVERGENCE CHECKS FOR EQUILIBRIUM ITERATION     1


 AVERAGE FORCE                      4.203E-06   TIME AVG. FORCE       9.115E-07
 LARGEST SCALED RESIDUAL FORCE     -3.902E-14   AT NODE      23286   DOF  3
   INSTANCE: SPIRAL-1                                                                        
  CORRESPONDING RESIDUAL FORCE     -3.902E-14
 LARGEST INCREMENT OF DISP.        -1.151E-05   AT NODE       3156   DOF  3
   INSTANCE: SPIRAL-1                                                                        
 LARGEST CORRECTION TO DISP.       -1.871E-07   AT NODE         41   DOF  3
   INSTANCE: SPIRAL-1                                                                        
 ESTIMATE OF DISP.    CORRECTION    7.301E-17
          FORCE     EQUILIB. ACCEPTED BASED ON SMALL RESIDUAL AND ESTIMATED CORRECTION

  MAXIMUM HALF-INCREMENT FORCE RESIDUAL IS  -6.195E-04 AND OCCURS AT NODE        889 INSTANCE SPIRAL-1                                                                        
          TIME INCREMENT MAY NOW INCREASE TO    4.264E-03

 ITERATION SUMMARY FOR THE INCREMENT:   1 TOTAL ITERATIONS, OF WHICH
   0 ARE SEVERE DISCONTINUITY ITERATIONS AND  1 ARE EQUILIBRIUM ITERATIONS.

 TIME INCREMENT COMPLETED  3.540E-03,  FRACTION OF STEP COMPLETED  2.120E-02
 STEP TIME COMPLETED       2.120E-02,  TOTAL TIME COMPLETED        2.120E-02


  INCREMENT    32 STARTS. ATTEMPT NUMBER  1, TIME INCREMENT  4.264E-03
 
	SYMMETRIC HYBRID DIRECT SPARSE SOLVER RUNNING ON
 	1 HOST x 1 MPI RANK PER HOST x 1 THREAD PER RANK
        NUMBER OF EQUATIONS:  90774
        NUMBER OF RHS:        1
        NUMBER OF FLOPS:      6.037e+09
        SOLVER ELAPSED TIME:  450ms

               CONVERGENCE CHECKS FOR EQUILIBRIUM ITERATION     1


 AVERAGE FORCE                      6.234E-06   TIME AVG. FORCE       1.143E-06
 LARGEST SCALED RESIDUAL FORCE      6.450E-14   AT NODE      22223   DOF  3
   INSTANCE: SPIRAL-1                                                                        
  CORRESPONDING RESIDUAL FORCE      6.450E-14
 LARGEST INCREMENT OF DISP.        -1.618E-05   AT NODE       3156   DOF  3
   INSTANCE: SPIRAL-1                                                                        
 LARGEST CORRECTION TO DISP.       -2.202E-07   AT NODE         41   DOF  3
   INSTANCE: SPIRAL-1                                                                        
 ESTIMATE OF DISP.    CORRECTION    2.391E-16
          FORCE     EQUILIB. ACCEPTED BASED ON SMALL RESIDUAL AND ESTIMATED CORRECTION

  MAXIMUM HALF-INCREMENT FORCE RESIDUAL IS  -7.364E-04 AND OCCURS AT NODE      10519 INSTANCE SPIRAL-1                                                                        
          TIME INCREMENT MAY NOW INCREASE TO    5.306E-03

 ITERATION SUMMARY FOR THE INCREMENT:   1 TOTAL ITERATIONS, OF WHICH
   0 ARE SEVERE DISCONTINUITY ITERATIONS AND  1 ARE EQUILIBRIUM ITERATIONS.

 TIME INCREMENT COMPLETED  4.264E-03,  FRACTION OF STEP COMPLETED  2.546E-02
 STEP TIME COMPLETED       2.546E-02,  TOTAL TIME COMPLETED        2.546E-02


  INCREMENT    33 STARTS. ATTEMPT NUMBER  1, TIME INCREMENT  5.306E-03
 
	SYMMETRIC HYBRID DIRECT SPARSE SOLVER RUNNING ON
 	1 HOST x 1 MPI RANK PER HOST x 1 THREAD PER RANK
        NUMBER OF EQUATIONS:  90774
        NUMBER OF RHS:        1
        NUMBER OF FLOPS:      6.037e+09
        SOLVER ELAPSED TIME:  469ms

               CONVERGENCE CHECKS FOR EQUILIBRIUM ITERATION     1


 AVERAGE FORCE                      9.240E-06   TIME AVG. FORCE       1.480E-06
 LARGEST SCALED RESIDUAL FORCE      7.512E-14   AT NODE      22192   DOF  3
   INSTANCE: SPIRAL-1                                                                        
  CORRESPONDING RESIDUAL FORCE      7.512E-14
 LARGEST INCREMENT OF DISP.        -2.329E-05   AT NODE       3156   DOF  3
   INSTANCE: SPIRAL-1                                                                        
 LARGEST CORRECTION TO DISP.       -3.845E-07   AT NODE        788   DOF  3
   INSTANCE: SPIRAL-1                                                                        
 ESTIMATE OF DISP.    CORRECTION   -8.546E-16
          FORCE     EQUILIB. ACCEPTED BASED ON SMALL RESIDUAL AND ESTIMATED CORRECTION

  MAXIMUM HALF-INCREMENT FORCE RESIDUAL IS   9.252E-04 AND OCCURS AT NODE      10519 INSTANCE SPIRAL-1                                                                        
          TIME INCREMENT MAY NOW INCREASE TO    6.632E-03

 ITERATION SUMMARY FOR THE INCREMENT:   1 TOTAL ITERATIONS, OF WHICH
   0 ARE SEVERE DISCONTINUITY ITERATIONS AND  1 ARE EQUILIBRIUM ITERATIONS.

 TIME INCREMENT COMPLETED  5.306E-03,  FRACTION OF STEP COMPLETED  3.077E-02
 STEP TIME COMPLETED       3.077E-02,  TOTAL TIME COMPLETED        3.077E-02


  INCREMENT    34 STARTS. ATTEMPT NUMBER  1, TIME INCREMENT  6.632E-03
 
	SYMMETRIC HYBRID DIRECT SPARSE SOLVER RUNNING ON
 	1 HOST x 1 MPI RANK PER HOST x 1 THREAD PER RANK
        NUMBER OF EQUATIONS:  90774
        NUMBER OF RHS:        1
        NUMBER OF FLOPS:      6.037e+09
        SOLVER ELAPSED TIME:  459ms

               CONVERGENCE CHECKS FOR EQUILIBRIUM ITERATION     1


 AVERAGE FORCE                      1.333E-05   TIME AVG. FORCE       1.954E-06
 LARGEST SCALED RESIDUAL FORCE      1.414E-13   AT NODE      22468   DOF  3
   INSTANCE: SPIRAL-1                                                                        
  CORRESPONDING RESIDUAL FORCE      1.414E-13
 LARGEST INCREMENT OF DISP.        -3.332E-05   AT NODE       3156   DOF  3
   INSTANCE: SPIRAL-1                                                                        
 LARGEST CORRECTION TO DISP.       -1.366E-06   AT NODE         41   DOF  3
   INSTANCE: SPIRAL-1                                                                        
 ESTIMATE OF DISP.    CORRECTION    1.738E-15
          FORCE     EQUILIB. ACCEPTED BASED ON SMALL RESIDUAL AND ESTIMATED CORRECTION

  MAXIMUM HALF-INCREMENT FORCE RESIDUAL IS  -1.161E-03 AND OCCURS AT NODE      10519 INSTANCE SPIRAL-1                                                                        
          TIME INCREMENT MAY NOW INCREASE TO    8.291E-03

 ITERATION SUMMARY FOR THE INCREMENT:   1 TOTAL ITERATIONS, OF WHICH
   0 ARE SEVERE DISCONTINUITY ITERATIONS AND  1 ARE EQUILIBRIUM ITERATIONS.

 TIME INCREMENT COMPLETED  6.632E-03,  FRACTION OF STEP COMPLETED  3.740E-02
 STEP TIME COMPLETED       3.740E-02,  TOTAL TIME COMPLETED        3.740E-02


  INCREMENT    35 STARTS. ATTEMPT NUMBER  1, TIME INCREMENT  8.291E-03
 
	SYMMETRIC HYBRID DIRECT SPARSE SOLVER RUNNING ON
 	1 HOST x 1 MPI RANK PER HOST x 1 THREAD PER RANK
        NUMBER OF EQUATIONS:  90774
        NUMBER OF RHS:        1
        NUMBER OF FLOPS:      6.037e+09
        SOLVER ELAPSED TIME:  453ms

               CONVERGENCE CHECKS FOR EQUILIBRIUM ITERATION     1


 AVERAGE FORCE                      1.821E-05   TIME AVG. FORCE       2.580E-06
 LARGEST SCALED RESIDUAL FORCE     -2.121E-13   AT NODE      22306   DOF  3
   INSTANCE: SPIRAL-1                                                                        
  CORRESPONDING RESIDUAL FORCE     -2.121E-13
 LARGEST INCREMENT OF DISP.        -4.663E-05   AT NODE       3156   DOF  3
   INSTANCE: SPIRAL-1                                                                        
 LARGEST CORRECTION TO DISP.        9.631E-07   AT NODE       3156   DOF  3
   INSTANCE: SPIRAL-1                                                                        
 ESTIMATE OF DISP.    CORRECTION   -8.083E-16
          FORCE     EQUILIB. ACCEPTED BASED ON SMALL RESIDUAL AND ESTIMATED CORRECTION

  MAXIMUM HALF-INCREMENT FORCE RESIDUAL IS   1.443E-03 AND OCCURS AT NODE      10519 INSTANCE SPIRAL-1                                                                        
          TIME INCREMENT MAY NOW INCREASE TO    1.036E-02

 ITERATION SUMMARY FOR THE INCREMENT:   1 TOTAL ITERATIONS, OF WHICH
   0 ARE SEVERE DISCONTINUITY ITERATIONS AND  1 ARE EQUILIBRIUM ITERATIONS.

 TIME INCREMENT COMPLETED  8.291E-03,  FRACTION OF STEP COMPLETED  4.569E-02
 STEP TIME COMPLETED       4.569E-02,  TOTAL TIME COMPLETED        4.569E-02


  INCREMENT    36 STARTS. ATTEMPT NUMBER  1, TIME INCREMENT  1.036E-02
 
	SYMMETRIC HYBRID DIRECT SPARSE SOLVER RUNNING ON
 	1 HOST x 1 MPI RANK PER HOST x 1 THREAD PER RANK
        NUMBER OF EQUATIONS:  90774
        NUMBER OF RHS:        1
        NUMBER OF FLOPS:      6.037e+09
        SOLVER ELAPSED TIME:  459ms

               CONVERGENCE CHECKS FOR EQUILIBRIUM ITERATION     1


 AVERAGE FORCE                      2.282E-05   TIME AVG. FORCE       3.329E-06
 LARGEST SCALED RESIDUAL FORCE     -2.514E-13   AT NODE      20941   DOF  3
   INSTANCE: SPIRAL-1                                                                        
  CORRESPONDING RESIDUAL FORCE     -2.514E-13
 LARGEST INCREMENT OF DISP.        -6.305E-05   AT NODE       3156   DOF  3
   INSTANCE: SPIRAL-1                                                                        
 LARGEST CORRECTION TO DISP.        1.811E-06   AT NODE        245   DOF  3
   INSTANCE: SPIRAL-1                                                                        
 ESTIMATE OF DISP.    CORRECTION    9.891E-16
          FORCE     EQUILIB. ACCEPTED BASED ON SMALL RESIDUAL AND ESTIMATED CORRECTION

  MAXIMUM HALF-INCREMENT FORCE RESIDUAL IS  -1.774E-03 AND OCCURS AT NODE      10519 INSTANCE SPIRAL-1                                                                        
          TIME INCREMENT MAY NOW INCREASE TO    1.295E-02

 ITERATION SUMMARY FOR THE INCREMENT:   1 TOTAL ITERATIONS, OF WHICH
   0 ARE SEVERE DISCONTINUITY ITERATIONS AND  1 ARE EQUILIBRIUM ITERATIONS.

 TIME INCREMENT COMPLETED  1.036E-02,  FRACTION OF STEP COMPLETED  5.606E-02
 STEP TIME COMPLETED       5.606E-02,  TOTAL TIME COMPLETED        5.606E-02


  INCREMENT    37 STARTS. ATTEMPT NUMBER  1, TIME INCREMENT  1.295E-02
 
	SYMMETRIC HYBRID DIRECT SPARSE SOLVER RUNNING ON
 	1 HOST x 1 MPI RANK PER HOST x 1 THREAD PER RANK
        NUMBER OF EQUATIONS:  90774
        NUMBER OF RHS:        1
        NUMBER OF FLOPS:      6.037e+09
        SOLVER ELAPSED TIME:  463ms

               CONVERGENCE CHECKS FOR EQUILIBRIUM ITERATION     1


 AVERAGE FORCE                      2.605E-05   TIME AVG. FORCE       4.141E-06
 LARGEST SCALED RESIDUAL FORCE     -3.841E-13   AT NODE      22314   DOF  3
   INSTANCE: SPIRAL-1                                                                        
  CORRESPONDING RESIDUAL FORCE     -3.841E-13
 LARGEST INCREMENT OF DISP.        -8.161E-05   AT NODE       3156   DOF  3
   INSTANCE: SPIRAL-1                                                                        
 LARGEST CORRECTION TO DISP.        2.407E-06   AT NODE       3156   DOF  3
   INSTANCE: SPIRAL-1                                                                        
 ESTIMATE OF DISP.    CORRECTION   -1.226E-15
          FORCE     EQUILIB. ACCEPTED BASED ON SMALL RESIDUAL AND ESTIMATED CORRECTION

  MAXIMUM HALF-INCREMENT FORCE RESIDUAL IS   2.157E-03 AND OCCURS AT NODE      10519 INSTANCE SPIRAL-1                                                                        
          TIME INCREMENT MAY NOW INCREASE TO    1.619E-02

 ITERATION SUMMARY FOR THE INCREMENT:   1 TOTAL ITERATIONS, OF WHICH
   0 ARE SEVERE DISCONTINUITY ITERATIONS AND  1 ARE EQUILIBRIUM ITERATIONS.

 TIME INCREMENT COMPLETED  1.295E-02,  FRACTION OF STEP COMPLETED  6.901E-02
 STEP TIME COMPLETED       6.901E-02,  TOTAL TIME COMPLETED        6.901E-02


  INCREMENT    38 STARTS. ATTEMPT NUMBER  1, TIME INCREMENT  1.619E-02
 
	SYMMETRIC HYBRID DIRECT SPARSE SOLVER RUNNING ON
 	1 HOST x 1 MPI RANK PER HOST x 1 THREAD PER RANK
        NUMBER OF EQUATIONS:  90774
        NUMBER OF RHS:        1
        NUMBER OF FLOPS:      6.037e+09
        SOLVER ELAPSED TIME:  460ms

               CONVERGENCE CHECKS FOR EQUILIBRIUM ITERATION     1


 AVERAGE FORCE                      2.492E-05   TIME AVG. FORCE       4.858E-06
 LARGEST SCALED RESIDUAL FORCE      4.629E-13   AT NODE      19301   DOF  3
   INSTANCE: SPIRAL-1                                                                        
  CORRESPONDING RESIDUAL FORCE      4.629E-13
 LARGEST INCREMENT OF DISP.        -1.048E-04   AT NODE        160   DOF  3
   INSTANCE: SPIRAL-1                                                                        
 LARGEST CORRECTION TO DISP.       -2.064E-06   AT NODE         41   DOF  3
   INSTANCE: SPIRAL-1                                                                        
 ESTIMATE OF DISP.    CORRECTION    8.189E-16
          FORCE     EQUILIB. ACCEPTED BASED ON SMALL RESIDUAL AND ESTIMATED CORRECTION

  MAXIMUM HALF-INCREMENT FORCE RESIDUAL IS  -2.592E-03 AND OCCURS AT NODE      10519 INSTANCE SPIRAL-1                                                                        
          TIME INCREMENT MAY NOW INCREASE TO    2.024E-02

 ITERATION SUMMARY FOR THE INCREMENT:   1 TOTAL ITERATIONS, OF WHICH
   0 ARE SEVERE DISCONTINUITY ITERATIONS AND  1 ARE EQUILIBRIUM ITERATIONS.

 TIME INCREMENT COMPLETED  1.619E-02,  FRACTION OF STEP COMPLETED  8.520E-02
 STEP TIME COMPLETED       8.520E-02,  TOTAL TIME COMPLETED        8.520E-02


  INCREMENT    39 STARTS. ATTEMPT NUMBER  1, TIME INCREMENT  2.024E-02
 
	SYMMETRIC HYBRID DIRECT SPARSE SOLVER RUNNING ON
 	1 HOST x 1 MPI RANK PER HOST x 1 THREAD PER RANK
        NUMBER OF EQUATIONS:  90774
        NUMBER OF RHS:        1
        NUMBER OF FLOPS:      6.037e+09
        SOLVER ELAPSED TIME:  938ms

               CONVERGENCE CHECKS FOR EQUILIBRIUM ITERATION     1


 AVERAGE FORCE                      1.917E-05   TIME AVG. FORCE       5.335E-06
 LARGEST SCALED RESIDUAL FORCE     -8.361E-13   AT NODE       2866   DOF  3
   INSTANCE: SPIRAL-1                                                                        
  CORRESPONDING RESIDUAL FORCE     -8.361E-13
 LARGEST INCREMENT OF DISP.        -1.731E-04   AT NODE         38   DOF  3
   INSTANCE: SPIRAL-1                                                                        
 LARGEST CORRECTION TO DISP.        1.082E-05   AT NODE         35   DOF  3
   INSTANCE: SPIRAL-1                                                                        
 ESTIMATE OF DISP.    CORRECTION   -5.212E-15
          FORCE     EQUILIB. ACCEPTED BASED ON SMALL RESIDUAL AND ESTIMATED CORRECTION

  MAXIMUM HALF-INCREMENT FORCE RESIDUAL IS   3.073E-03 AND OCCURS AT NODE      10519 INSTANCE SPIRAL-1                                                                        
          TIME INCREMENT MAY NOW INCREASE TO    2.530E-02

 ITERATION SUMMARY FOR THE INCREMENT:   1 TOTAL ITERATIONS, OF WHICH
   0 ARE SEVERE DISCONTINUITY ITERATIONS AND  1 ARE EQUILIBRIUM ITERATIONS.

 TIME INCREMENT COMPLETED  2.024E-02,  FRACTION OF STEP COMPLETED  0.105    
 STEP TIME COMPLETED       0.105    ,  TOTAL TIME COMPLETED        0.105    


  INCREMENT    40 STARTS. ATTEMPT NUMBER  1, TIME INCREMENT  2.530E-02
 
	SYMMETRIC HYBRID DIRECT SPARSE SOLVER RUNNING ON
 	1 HOST x 1 MPI RANK PER HOST x 1 THREAD PER RANK
        NUMBER OF EQUATIONS:  90774
        NUMBER OF RHS:        1
        NUMBER OF FLOPS:      6.037e+09
        SOLVER ELAPSED TIME:  926ms

               CONVERGENCE CHECKS FOR EQUILIBRIUM ITERATION     1


 AVERAGE FORCE                      2.509E-05   TIME AVG. FORCE       5.972E-06
 LARGEST SCALED RESIDUAL FORCE      1.188E-12   AT NODE       2203   DOF  3
   INSTANCE: SPIRAL-1                                                                        
  CORRESPONDING RESIDUAL FORCE      1.188E-12
 LARGEST INCREMENT OF DISP.        -2.360E-04   AT NODE         38   DOF  3
   INSTANCE: SPIRAL-1                                                                        
 LARGEST CORRECTION TO DISP.        3.932E-05   AT NODE         41   DOF  3
   INSTANCE: SPIRAL-1                                                                        
 ESTIMATE OF DISP.    CORRECTION   -1.868E-14
          FORCE     EQUILIB. ACCEPTED BASED ON SMALL RESIDUAL AND ESTIMATED CORRECTION

  MAXIMUM HALF-INCREMENT FORCE RESIDUAL IS  -3.588E-03 AND OCCURS AT NODE      10519 INSTANCE SPIRAL-1                                                                        
          TIME INCREMENT MAY NOW INCREASE TO    3.159E-02

 ITERATION SUMMARY FOR THE INCREMENT:   1 TOTAL ITERATIONS, OF WHICH
   0 ARE SEVERE DISCONTINUITY ITERATIONS AND  1 ARE EQUILIBRIUM ITERATIONS.

 TIME INCREMENT COMPLETED  2.530E-02,  FRACTION OF STEP COMPLETED  0.131    
 STEP TIME COMPLETED       0.131    ,  TOTAL TIME COMPLETED        0.131    


  INCREMENT    41 STARTS. ATTEMPT NUMBER  1, TIME INCREMENT  3.159E-02
 
	SYMMETRIC HYBRID DIRECT SPARSE SOLVER RUNNING ON
 	1 HOST x 1 MPI RANK PER HOST x 1 THREAD PER RANK
        NUMBER OF EQUATIONS:  90774
        NUMBER OF RHS:        1
        NUMBER OF FLOPS:      6.037e+09
        SOLVER ELAPSED TIME:  965ms

               CONVERGENCE CHECKS FOR EQUILIBRIUM ITERATION     1


 AVERAGE FORCE                      3.606E-05   TIME AVG. FORCE       6.912E-06
 LARGEST SCALED RESIDUAL FORCE     -1.243E-12   AT NODE       8337   DOF  3
   INSTANCE: SPIRAL-1                                                                        
  CORRESPONDING RESIDUAL FORCE     -1.243E-12
 LARGEST INCREMENT OF DISP.        -3.030E-04   AT NODE       3156   DOF  3
   INSTANCE: SPIRAL-1                                                                        
 LARGEST CORRECTION TO DISP.        2.493E-05   AT NODE       2834   DOF  3
   INSTANCE: SPIRAL-1                                                                        
 ESTIMATE OF DISP.    CORRECTION   -8.825E-15
          FORCE     EQUILIB. ACCEPTED BASED ON SMALL RESIDUAL AND ESTIMATED CORRECTION

  MAXIMUM HALF-INCREMENT FORCE RESIDUAL IS   4.106E-03 AND OCCURS AT NODE      10519 INSTANCE SPIRAL-1                                                                        
          TIME INCREMENT MAY NOW INCREASE TO    3.916E-02

 ITERATION SUMMARY FOR THE INCREMENT:   1 TOTAL ITERATIONS, OF WHICH
   0 ARE SEVERE DISCONTINUITY ITERATIONS AND  1 ARE EQUILIBRIUM ITERATIONS.

 TIME INCREMENT COMPLETED  3.159E-02,  FRACTION OF STEP COMPLETED  0.162    
 STEP TIME COMPLETED       0.162    ,  TOTAL TIME COMPLETED        0.162    


  INCREMENT    42 STARTS. ATTEMPT NUMBER  1, TIME INCREMENT  3.916E-02
 
	SYMMETRIC HYBRID DIRECT SPARSE SOLVER RUNNING ON
 	1 HOST x 1 MPI RANK PER HOST x 1 THREAD PER RANK
        NUMBER OF EQUATIONS:  90774
        NUMBER OF RHS:        1
        NUMBER OF FLOPS:      6.037e+09
        SOLVER ELAPSED TIME:  914ms

               CONVERGENCE CHECKS FOR EQUILIBRIUM ITERATION     1


 AVERAGE FORCE                      4.381E-05   TIME AVG. FORCE       8.030E-06
 LARGEST SCALED RESIDUAL FORCE     -1.887E-12   AT NODE      22321   DOF  3
   INSTANCE: SPIRAL-1                                                                        
  CORRESPONDING RESIDUAL FORCE     -1.887E-12
 LARGEST INCREMENT OF DISP.        -4.109E-04   AT NODE       3156   DOF  3
   INSTANCE: SPIRAL-1                                                                        
 LARGEST CORRECTION TO DISP.        6.485E-05   AT NODE        245   DOF  3
   INSTANCE: SPIRAL-1                                                                        
 ESTIMATE OF DISP.    CORRECTION    2.557E-14
          FORCE     EQUILIB. ACCEPTED BASED ON SMALL RESIDUAL AND ESTIMATED CORRECTION

  MAXIMUM HALF-INCREMENT FORCE RESIDUAL IS  -4.526E-03 AND OCCURS AT NODE      10519 INSTANCE SPIRAL-1                                                                        
          TIME INCREMENT MAY NOW INCREASE TO    4.895E-02

 ITERATION SUMMARY FOR THE INCREMENT:   1 TOTAL ITERATIONS, OF WHICH
   0 ARE SEVERE DISCONTINUITY ITERATIONS AND  1 ARE EQUILIBRIUM ITERATIONS.

 TIME INCREMENT COMPLETED  3.916E-02,  FRACTION OF STEP COMPLETED  0.201    
 STEP TIME COMPLETED       0.201    ,  TOTAL TIME COMPLETED        0.201    


  INCREMENT    43 STARTS. ATTEMPT NUMBER  1, TIME INCREMENT  4.895E-02
 
	SYMMETRIC HYBRID DIRECT SPARSE SOLVER RUNNING ON
 	1 HOST x 1 MPI RANK PER HOST x 1 THREAD PER RANK
        NUMBER OF EQUATIONS:  90774
        NUMBER OF RHS:        1
        NUMBER OF FLOPS:      6.037e+09
        SOLVER ELAPSED TIME:  846ms

               CONVERGENCE CHECKS FOR EQUILIBRIUM ITERATION     1


 AVERAGE FORCE                      5.502E-05   TIME AVG. FORCE       9.413E-06
 LARGEST SCALED RESIDUAL FORCE     -2.376E-12   AT NODE      22322   DOF  3
   INSTANCE: SPIRAL-1                                                                        
  CORRESPONDING RESIDUAL FORCE     -2.376E-12
 LARGEST INCREMENT OF DISP.        -3.707E-04   AT NODE       3156   DOF  3
   INSTANCE: SPIRAL-1                                                                        
 LARGEST CORRECTION TO DISP.        1.173E-04   AT NODE       3156   DOF  3
   INSTANCE: SPIRAL-1                                                                        
 ESTIMATE OF DISP.    CORRECTION   -4.274E-14
          FORCE     EQUILIB. ACCEPTED BASED ON SMALL RESIDUAL AND ESTIMATED CORRECTION

  MAXIMUM HALF-INCREMENT FORCE RESIDUAL IS   4.934E-03 AND OCCURS AT NODE      10519 INSTANCE SPIRAL-1                                                                        
          TIME INCREMENT MAY NOW INCREASE TO    6.119E-02

 ITERATION SUMMARY FOR THE INCREMENT:   1 TOTAL ITERATIONS, OF WHICH
   0 ARE SEVERE DISCONTINUITY ITERATIONS AND  1 ARE EQUILIBRIUM ITERATIONS.

 TIME INCREMENT COMPLETED  4.895E-02,  FRACTION OF STEP COMPLETED  0.250    
 STEP TIME COMPLETED       0.250    ,  TOTAL TIME COMPLETED        0.250    


  INCREMENT    44 STARTS. ATTEMPT NUMBER  1, TIME INCREMENT  6.119E-02
 
	SYMMETRIC HYBRID DIRECT SPARSE SOLVER RUNNING ON
 	1 HOST x 1 MPI RANK PER HOST x 1 THREAD PER RANK
        NUMBER OF EQUATIONS:  90774
        NUMBER OF RHS:        1
        NUMBER OF FLOPS:      6.037e+09
        SOLVER ELAPSED TIME:  924ms

               CONVERGENCE CHECKS FOR EQUILIBRIUM ITERATION     1


 AVERAGE FORCE                      6.790E-05   TIME AVG. FORCE       1.108E-05
 LARGEST SCALED RESIDUAL FORCE     -2.826E-12   AT NODE      17506   DOF  3
   INSTANCE: SPIRAL-1                                                                        
  CORRESPONDING RESIDUAL FORCE     -2.826E-12
 LARGEST INCREMENT OF DISP.        -2.338E-04   AT NODE         38   DOF  3
   INSTANCE: SPIRAL-1                                                                        
 LARGEST CORRECTION TO DISP.        1.435E-04   AT NODE         35   DOF  3
   INSTANCE: SPIRAL-1                                                                        
 ESTIMATE OF DISP.    CORRECTION    4.647E-14
          FORCE     EQUILIB. ACCEPTED BASED ON SMALL RESIDUAL AND ESTIMATED CORRECTION

  MAXIMUM HALF-INCREMENT FORCE RESIDUAL IS  -5.180E-03 AND OCCURS AT NODE      10519 INSTANCE SPIRAL-1                                                                        
          TIME INCREMENT MAY NOW INCREASE TO    7.648E-02

 ITERATION SUMMARY FOR THE INCREMENT:   1 TOTAL ITERATIONS, OF WHICH
   0 ARE SEVERE DISCONTINUITY ITERATIONS AND  1 ARE EQUILIBRIUM ITERATIONS.

 TIME INCREMENT COMPLETED  6.119E-02,  FRACTION OF STEP COMPLETED  0.312    
 STEP TIME COMPLETED       0.312    ,  TOTAL TIME COMPLETED        0.312    


  INCREMENT    45 STARTS. ATTEMPT NUMBER  1, TIME INCREMENT  7.648E-02
 
	SYMMETRIC HYBRID DIRECT SPARSE SOLVER RUNNING ON
 	1 HOST x 1 MPI RANK PER HOST x 1 THREAD PER RANK
        NUMBER OF EQUATIONS:  90774
        NUMBER OF RHS:        1
        NUMBER OF FLOPS:      6.037e+09
        SOLVER ELAPSED TIME:  915ms

               CONVERGENCE CHECKS FOR EQUILIBRIUM ITERATION     1


 AVERAGE FORCE                      5.749E-05   TIME AVG. FORCE       1.237E-05
 LARGEST SCALED RESIDUAL FORCE     -2.687E-12   AT NODE      22305   DOF  3
   INSTANCE: SPIRAL-1                                                                        
  CORRESPONDING RESIDUAL FORCE     -2.687E-12
 LARGEST INCREMENT OF DISP.         2.151E-04   AT NODE        165   DOF  3
   INSTANCE: SPIRAL-1                                                                        
 LARGEST CORRECTION TO DISP.        1.416E-04   AT NODE        166   DOF  3
   INSTANCE: SPIRAL-1                                                                        
 ESTIMATE OF DISP.    CORRECTION   -3.299E-14
          FORCE     EQUILIB. ACCEPTED BASED ON SMALL RESIDUAL AND ESTIMATED CORRECTION

  MAXIMUM HALF-INCREMENT FORCE RESIDUAL IS   5.145E-03 AND OCCURS AT NODE      10519 INSTANCE SPIRAL-1                                                                        
          TIME INCREMENT MAY NOW INCREASE TO    9.561E-02

 ITERATION SUMMARY FOR THE INCREMENT:   1 TOTAL ITERATIONS, OF WHICH
   0 ARE SEVERE DISCONTINUITY ITERATIONS AND  1 ARE EQUILIBRIUM ITERATIONS.

 TIME INCREMENT COMPLETED  7.648E-02,  FRACTION OF STEP COMPLETED  0.388    
 STEP TIME COMPLETED       0.388    ,  TOTAL TIME COMPLETED        0.388    


  INCREMENT    46 STARTS. ATTEMPT NUMBER  1, TIME INCREMENT  9.561E-02
 
	SYMMETRIC HYBRID DIRECT SPARSE SOLVER RUNNING ON
 	1 HOST x 1 MPI RANK PER HOST x 1 THREAD PER RANK
        NUMBER OF EQUATIONS:  90774
        NUMBER OF RHS:        1
        NUMBER OF FLOPS:      6.037e+09
        SOLVER ELAPSED TIME:  928ms

               CONVERGENCE CHECKS FOR EQUILIBRIUM ITERATION     1


 AVERAGE FORCE                      3.460E-05   TIME AVG. FORCE       1.297E-05
 LARGEST SCALED RESIDUAL FORCE      8.428E-12   AT NODE       2397   DOF  3
   INSTANCE: SPIRAL-1                                                                        
  CORRESPONDING RESIDUAL FORCE      8.428E-12
 LARGEST INCREMENT OF DISP.         7.179E-04   AT NODE       3156   DOF  3
   INSTANCE: SPIRAL-1                                                                        
 LARGEST CORRECTION TO DISP.       -5.369E-04   AT NODE        166   DOF  3
   INSTANCE: SPIRAL-1                                                                        
 ESTIMATE OF DISP.    CORRECTION    3.005E-13
          FORCE     EQUILIB. ACCEPTED BASED ON SMALL RESIDUAL AND ESTIMATED CORRECTION

  MAXIMUM HALF-INCREMENT FORCE RESIDUAL IS  -4.665E-03 AND OCCURS AT NODE      10519 INSTANCE SPIRAL-1                                                                        
          TIME INCREMENT MAY NOW INCREASE TO    0.120    

 ITERATION SUMMARY FOR THE INCREMENT:   1 TOTAL ITERATIONS, OF WHICH
   0 ARE SEVERE DISCONTINUITY ITERATIONS AND  1 ARE EQUILIBRIUM ITERATIONS.

 TIME INCREMENT COMPLETED  9.561E-02,  FRACTION OF STEP COMPLETED  0.484    
 STEP TIME COMPLETED       0.484    ,  TOTAL TIME COMPLETED        0.484    


  INCREMENT    47 STARTS. ATTEMPT NUMBER  1, TIME INCREMENT  0.120    
 
	SYMMETRIC HYBRID DIRECT SPARSE SOLVER RUNNING ON
 	1 HOST x 1 MPI RANK PER HOST x 1 THREAD PER RANK
        NUMBER OF EQUATIONS:  90774
        NUMBER OF RHS:        1
        NUMBER OF FLOPS:      6.037e+09
        SOLVER ELAPSED TIME:  906ms

               CONVERGENCE CHECKS FOR EQUILIBRIUM ITERATION     1


 AVERAGE FORCE                      5.439E-06   TIME AVG. FORCE       1.278E-05
 LARGEST SCALED RESIDUAL FORCE     -1.745E-11   AT NODE      22305   DOF  3
   INSTANCE: SPIRAL-1                                                                        
  CORRESPONDING RESIDUAL FORCE     -1.745E-11
 LARGEST INCREMENT OF DISP.         8.943E-04   AT NODE       3156   DOF  3
   INSTANCE: SPIRAL-1                                                                        
 LARGEST CORRECTION TO DISP.       -7.505E-04   AT NODE        245   DOF  3
   INSTANCE: SPIRAL-1                                                                        
 ESTIMATE OF DISP.    CORRECTION    6.730E-13
          FORCE     EQUILIB. ACCEPTED BASED ON SMALL RESIDUAL AND ESTIMATED CORRECTION

  MAXIMUM HALF-INCREMENT FORCE RESIDUAL IS   3.512E-03 AND OCCURS AT NODE      10519 INSTANCE SPIRAL-1                                                                        
          TIME INCREMENT MAY NOW INCREASE TO    0.149    

 ITERATION SUMMARY FOR THE INCREMENT:   1 TOTAL ITERATIONS, OF WHICH
   0 ARE SEVERE DISCONTINUITY ITERATIONS AND  1 ARE EQUILIBRIUM ITERATIONS.

 TIME INCREMENT COMPLETED  0.120    ,  FRACTION OF STEP COMPLETED  0.603    
 STEP TIME COMPLETED       0.603    ,  TOTAL TIME COMPLETED        0.603    


  INCREMENT    48 STARTS. ATTEMPT NUMBER  1, TIME INCREMENT  0.149    
 
	SYMMETRIC HYBRID DIRECT SPARSE SOLVER RUNNING ON
 	1 HOST x 1 MPI RANK PER HOST x 1 THREAD PER RANK
        NUMBER OF EQUATIONS:  90774
        NUMBER OF RHS:        1
        NUMBER OF FLOPS:      6.037e+09
        SOLVER ELAPSED TIME:  920ms

               CONVERGENCE CHECKS FOR EQUILIBRIUM ITERATION     1


 AVERAGE FORCE                      2.120E-05   TIME AVG. FORCE       1.299E-05
 LARGEST SCALED RESIDUAL FORCE      6.405E-12   AT NODE      22322   DOF  3
   INSTANCE: SPIRAL-1                                                                        
  CORRESPONDING RESIDUAL FORCE      6.405E-12
 LARGEST INCREMENT OF DISP.        -2.248E-04   AT NODE       3156   DOF  3
   INSTANCE: SPIRAL-1                                                                        
 LARGEST CORRECTION TO DISP.       -4.095E-04   AT NODE       3156   DOF  3
   INSTANCE: SPIRAL-1                                                                        
 ESTIMATE OF DISP.    CORRECTION   -1.054E-13
          FORCE     EQUILIB. ACCEPTED BASED ON SMALL RESIDUAL AND ESTIMATED CORRECTION

  MAXIMUM HALF-INCREMENT FORCE RESIDUAL IS  -1.379E-03 AND OCCURS AT NODE      10519 INSTANCE SPIRAL-1                                                                        
          TIME INCREMENT MAY NOW INCREASE TO    0.187    

 ITERATION SUMMARY FOR THE INCREMENT:   1 TOTAL ITERATIONS, OF WHICH
   0 ARE SEVERE DISCONTINUITY ITERATIONS AND  1 ARE EQUILIBRIUM ITERATIONS.

 TIME INCREMENT COMPLETED  0.149    ,  FRACTION OF STEP COMPLETED  0.753    
 STEP TIME COMPLETED       0.753    ,  TOTAL TIME COMPLETED        0.753    


  INCREMENT    49 STARTS. ATTEMPT NUMBER  1, TIME INCREMENT  0.187    
 
	SYMMETRIC HYBRID DIRECT SPARSE SOLVER RUNNING ON
 	1 HOST x 1 MPI RANK PER HOST x 1 THREAD PER RANK
        NUMBER OF EQUATIONS:  90774
        NUMBER OF RHS:        1
        NUMBER OF FLOPS:      6.037e+09
        SOLVER ELAPSED TIME:  923ms

               CONVERGENCE CHECKS FOR EQUILIBRIUM ITERATION     1


 AVERAGE FORCE                      5.203E-05   TIME AVG. FORCE       1.397E-05
 LARGEST SCALED RESIDUAL FORCE      3.939E-11   AT NODE       2097   DOF  3
   INSTANCE: SPIRAL-1                                                                        
  CORRESPONDING RESIDUAL FORCE      3.939E-11
 LARGEST INCREMENT OF DISP.        -1.259E-03   AT NODE       3156   DOF  3
   INSTANCE: SPIRAL-1                                                                        
 LARGEST CORRECTION TO DISP.        1.639E-03   AT NODE       3156   DOF  3
   INSTANCE: SPIRAL-1                                                                        
 ESTIMATE OF DISP.    CORRECTION   -2.047E-12
          FORCE     EQUILIB. ACCEPTED BASED ON SMALL RESIDUAL AND ESTIMATED CORRECTION

  MAXIMUM HALF-INCREMENT FORCE RESIDUAL IS   3.124E-03 AND OCCURS AT NODE      21873 INSTANCE SPIRAL-1                                                                        

 ITERATION SUMMARY FOR THE INCREMENT:   1 TOTAL ITERATIONS, OF WHICH
   0 ARE SEVERE DISCONTINUITY ITERATIONS AND  1 ARE EQUILIBRIUM ITERATIONS.

 TIME INCREMENT COMPLETED  0.187    ,  FRACTION OF STEP COMPLETED  0.939    
 STEP TIME COMPLETED       0.939    ,  TOTAL TIME COMPLETED        0.939    


  INCREMENT    50 STARTS. ATTEMPT NUMBER  1, TIME INCREMENT  6.066E-02
 
	SYMMETRIC HYBRID DIRECT SPARSE SOLVER RUNNING ON
 	1 HOST x 1 MPI RANK PER HOST x 1 THREAD PER RANK
        NUMBER OF EQUATIONS:  90774
        NUMBER OF RHS:        1
        NUMBER OF FLOPS:      6.037e+09
        SOLVER ELAPSED TIME:  903ms

               CONVERGENCE CHECKS FOR EQUILIBRIUM ITERATION     1


 AVERAGE FORCE                      6.512E-05   TIME AVG. FORCE       1.521E-05
 LARGEST SCALED RESIDUAL FORCE      4.015E-12   AT NODE       1031   DOF  3
   INSTANCE: SPIRAL-1                                                                        
  CORRESPONDING RESIDUAL FORCE      4.015E-12
 LARGEST INCREMENT OF DISP.        -2.711E-04   AT NODE        165   DOF  3
   INSTANCE: SPIRAL-1                                                                        
 LARGEST CORRECTION TO DISP.        1.977E-04   AT NODE         38   DOF  3
   INSTANCE: SPIRAL-1                                                                        
 ESTIMATE OF DISP.    CORRECTION    1.311E-13
          FORCE     EQUILIB. ACCEPTED BASED ON SMALL RESIDUAL AND ESTIMATED CORRECTION

  MAXIMUM HALF-INCREMENT FORCE RESIDUAL IS  -1.799E-03 AND OCCURS AT NODE        889 INSTANCE SPIRAL-1                                                                        

 ITERATION SUMMARY FOR THE INCREMENT:   1 TOTAL ITERATIONS, OF WHICH
   0 ARE SEVERE DISCONTINUITY ITERATIONS AND  1 ARE EQUILIBRIUM ITERATIONS.

 TIME INCREMENT COMPLETED  6.066E-02,  FRACTION OF STEP COMPLETED   1.00    
 STEP TIME COMPLETED        1.00    ,  TOTAL TIME COMPLETED         1.00    


          THE ANALYSIS HAS BEEN COMPLETED



     ANALYSIS SUMMARY:
     TOTAL OF         50  INCREMENTS
                       1  CUTBACKS IN AUTOMATIC INCREMENTATION
                      51  ITERATIONS INCLUDING CONTACT ITERATIONS IF PRESENT
                      53  PASSES THROUGH THE EQUATION SOLVER OF WHICH 
                      52  INVOLVE MATRIX DECOMPOSITION, INCLUDING
                       2  DECOMPOSITION(S) OF THE MASS MATRIX
                       1  REORDERING OF EQUATIONS TO MINIMIZE WAVEFRONT
                       0  ADDITIONAL RESIDUAL EVALUATIONS FOR LINE SEARCHES
                       0  ADDITIONAL OPERATOR EVALUATIONS FOR LINE SEARCHES
                       4  WARNING MESSAGES DURING USER INPUT PROCESSING
                       9  WARNING MESSAGES DURING ANALYSIS
                       0  ANALYSIS WARNINGS ARE NUMERICAL PROBLEM MESSAGES
                       0  ANALYSIS WARNINGS ARE NEGATIVE EIGENVALUE MESSAGES
                       0  ERROR MESSAGES



     JOB TIME SUMMARY
       USER TIME (SEC)      =      87.    
       SYSTEM TIME (SEC)    =      11.    
       TOTAL CPU TIME (SEC) =      98.    
       WALLCLOCK TIME (SEC) =           83
       MEMORY PEAK (GB)     =            0
