 Abaqus/Standard 2025                  DATE 10-Feb-2026 TIME 13:05:02
 SUMMARY OF JOB INFORMATION:
 STEP  INC ATT SEVERE EQUIL TOTAL  TOTAL      STEP       INC OF       DOF    IF
               DISCON ITERS ITERS  TIME/    TIME/LPF    TIME/LPF    MONITOR RIKS
               ITERS               FREQ
   1     1   1U    0     1     1  0.00       0.00       1.000     
   1     1   2     0     1     1  1.00e-05   1.00e-05   1.000e-05 
   1     2   1     0     1     1  2.00e-05   2.00e-05   1.000e-05 
   1     3   1     0     1     1  3.00e-05   3.00e-05   1.000e-05 
   1     4   1     0     1     1  4.25e-05   4.25e-05   1.250e-05 
   1     5   1     0     1     1  5.81e-05   5.81e-05   1.563e-05 
   1     6   1     0     1     1  7.77e-05   7.77e-05   1.953e-05 
   1     7   1     0     1     1  0.000102   0.000102   2.441e-05 
   1     8   1     0     1     1  0.000133   0.000133   3.052e-05 
   1     9   1     0     1     1  0.000171   0.000171   3.815e-05 
   1    10   1     0     1     1  0.000218   0.000218   4.768e-05 
   1    11   1     0     1     1  0.000278   0.000278   5.960e-05 
   1    12   1     0     1     1  0.000353   0.000353   7.451e-05 
   1    13   1     0     1     1  0.000446   0.000446   9.313e-05 
   1    14   1     0     1     1  0.000562   0.000562   0.0001164 
   1    15   1     0     1     1  0.000708   0.000708   0.0001455 
   1    16   1     0     1     1  0.000889   0.000889   0.0001819 
   1    17   1     0     1     1  0.00112    0.00112    0.0002274 
   1    18   1     0     1     1  0.00140    0.00140    0.0002842 
   1    19   1     0     1     1  0.00176    0.00176    0.0003553 
   1    20   1     0     1     1  0.00220    0.00220    0.0004441 
   1    21   1     0     1     1  0.00276    0.00276    0.0005551 
   1    22   1     0     1     1  0.00345    0.00345    0.0006939 
   1    23   1     0     1     1  0.00432    0.00432    0.0008674 
   1    24   1     0     1     1  0.00540    0.00540    0.001084  
   1    25   1     0     1     1  0.00676    0.00676    0.001355  
   1    26   1     0     1     1  0.00845    0.00845    0.001694  
   1    27   1     0     1     1  0.0105     0.0105     0.002007  
   1    28   1     0     1     1  0.0125     0.0125     0.002007  
   1    29   1     0     1     1  0.0148     0.0148     0.002363  
   1    30   1     0     1     1  0.0177     0.0177     0.002832  
   1    31   1     0     1     1  0.0212     0.0212     0.003540  
   1    32   1     0     1     1  0.0255     0.0255     0.004264  
   1    33   1     0     1     1  0.0308     0.0308     0.005306  
   1    34   1     0     1     1  0.0374     0.0374     0.006632  
   1    35   1     0     1     1  0.0457     0.0457     0.008291  
   1    36   1     0     1     1  0.0561     0.0561     0.01036   
   1    37   1     0     1     1  0.0690     0.0690     0.01295   
   1    38   1     0     1     1  0.0852     0.0852     0.01619   
   1    39   1     0     1     1  0.105      0.105      0.02024   
   1    40   1     0     1     1  0.131      0.131      0.02530   
   1    41   1     0     1     1  0.162      0.162      0.03159   
   1    42   1     0     1     1  0.201      0.201      0.03916   
   1    43   1     0     1     1  0.250      0.250      0.04895   
   1    44   1     0     1     1  0.312      0.312      0.06119   
   1    45   1     0     1     1  0.388      0.388      0.07648   
   1    46   1     0     1     1  0.484      0.484      0.09561   
   1    47   1     0     1     1  0.603      0.603      0.1195    
   1    48   1     0     1     1  0.753      0.753      0.1494    
   1    49   1     0     1     1  0.939      0.939      0.1867    
   1    50   1     0     1     1  1.00       1.00       0.06066   
                          
 THE ANALYSIS HAS COMPLETED SUCCESSFULLY
