 Abaqus/Standard 2025                  DATE 20-Feb-2026 TIME 23:55:51
 SUMMARY OF JOB INFORMATION:
 STEP  INC ATT SEVERE EQUIL TOTAL  TOTAL      STEP       INC OF       DOF    IF
               DISCON ITERS ITERS  TIME/    TIME/LPF    TIME/LPF    MONITOR RIKS
               ITERS               FREQ
   1     1   1     0     3     3  0.00100    0.00100    0.001000  
   1     2   1     0     3     3  0.00200    0.00200    0.001000  
   1     3   1     0     3     3  0.00350    0.00350    0.001500  
   1     4   1     0     3     3  0.00575    0.00575    0.002250  
   1     5   1     0     3     3  0.00913    0.00913    0.003375  
   1     6   1     0     4     4  0.0142     0.0142     0.005063  
   1     7   1     0     5     5  0.0218     0.0218     0.007594  
   1     8   1     0     7     7  0.0294     0.0294     0.007594  
   1     9   1     0     8     8  0.0370     0.0370     0.007594  
   1    10   1     0    10    10  0.0446     0.0446     0.007594  
   1    11   1U    0     4     4  0.0446     0.0446     0.007594  
   1    11   2     0     6     6  0.0465     0.0465     0.001898  
   1    12   1     0     4     4  0.0484     0.0484     0.001898  
   1    13   1     0     5     5  0.0503     0.0503     0.001898  
   1    14   1     0     3     3  0.0522     0.0522     0.001898  
   1    15   1U    0     4     4  0.0522     0.0522     0.001898  
   1    15   2     0     2     2  0.0526     0.0526     0.0004746 
   1    16   1     0     3     3  0.0533     0.0533     0.0007119 
   1    17   1U    0     4     4  0.0533     0.0533     0.001068  
   1    17   2     0     5     5  0.0536     0.0536     0.0002670 
   1    18   1     0    12    12  0.0539     0.0539     0.0002670 
   1    19   1     0     1     1  0.0541     0.0541     0.0002002 
   1    20   1     0    14    14  0.0543     0.0543     0.0002002 
   1    21   1     0     1     1  0.0544     0.0544     0.0001502 
   1    22   1     0     1     1  0.0546     0.0546     0.0001502 
   1    23   1U    0    16    16  0.0546     0.0546     0.0002253 
   1    23   2U    0    16    16  0.0546     0.0546     5.631e-05 
   1    23   3U    0    16    16  0.0546     0.0546     1.408e-05 
   1    23   4U    0    16    16  0.0546     0.0546     1.000e-05 
                          
 THE ANALYSIS HAS NOT BEEN COMPLETED
