 Abaqus/Standard 2025                  DATE 22-Feb-2026 TIME 02:55:18
 SUMMARY OF JOB INFORMATION:
 STEP  INC ATT SEVERE EQUIL TOTAL  TOTAL      STEP       INC OF       DOF    IF
               DISCON ITERS ITERS  TIME/    TIME/LPF    TIME/LPF    MONITOR RIKS
               ITERS               FREQ
   1     1   1U    0     2     2  0.00       0.00       1.000     
   1     1   2U    0     2     2  0.00       0.00       0.2500    
   1     1   3U    0     3     3  0.00       0.00       0.06250   
   1     1   4U    0     7     7  0.00       0.00       0.01562   
   1     1   5     0     9     9  0.00391    0.00391    0.003906  
   1     2   1     0     5     5  0.00781    0.00781    0.003906  
   1     3   1     0     4     4  0.0117     0.0117     0.003906  
   1     4   1     0     4     4  0.0156     0.0156     0.003906  
   1     5   1     0     3     3  0.0215     0.0215     0.005859  
   1     6   1     0     5     5  0.0303     0.0303     0.008789  
   1     7   1     0     5     5  0.0391     0.0391     0.008789  
   1     8   1     0     4     4  0.0479     0.0479     0.008789  
   1     9   1     0     4     4  0.0566     0.0566     0.008789  
   1    10   1     0     5     5  0.0698     0.0698     0.01318   
   1    11   1     0     4     4  0.0830     0.0830     0.01318   
   1    12   1     0     4     4  0.0962     0.0962     0.01318   
   1    13   1U    0     5     5  0.0962     0.0962     0.01978   
   1    13   2     0     3     3  0.101      0.101      0.004944  
   1    14   1     0     3     3  0.109      0.109      0.007416  
   1    15   1     0     4     4  0.120      0.120      0.01112   
   1    16   1     0     4     4  0.136      0.136      0.01669   
   1    17   1     0     5     5  0.161      0.161      0.02503   
   1    18   1     0     9     9  0.186      0.186      0.02503   
   1    19   1U    0     5     5  0.186      0.186      0.02503   
   1    19   2     0     4     4  0.193      0.193      0.006257  
   1    20   1     0     2     2  0.199      0.199      0.006257  
   1    21   1     0     4     4  0.208      0.208      0.009386  
   1    22   1     0     4     4  0.222      0.222      0.01408   
   1    23   1     0     4     4  0.244      0.244      0.02112   
   1    24   1U    0     5     5  0.244      0.244      0.03168   
   1    24   2     0     2     2  0.251      0.251      0.007919  
   1    25   1     0     2     2  0.263      0.263      0.01188   
   1    26   1     0     4     4  0.281      0.281      0.01782   
   1    27   1     0     4     4  0.308      0.308      0.02673   
   1    28   1U    0     5     5  0.308      0.308      0.04009   
   1    28   2     0     2     2  0.318      0.318      0.01002   
   1    29   1     0     2     2  0.333      0.333      0.01503   
   1    30   1     0     4     4  0.355      0.355      0.02255   
   1    31   1     0     4     4  0.389      0.389      0.03383   
   1    32   1U    0     5     5  0.389      0.389      0.05074   
   1    32   2     0     2     2  0.402      0.402      0.01268   
   1    33   1     0     2     2  0.421      0.421      0.01903   
   1    34   1     0     4     4  0.450      0.450      0.02854   
   1    35   1     0     4     4  0.492      0.492      0.04281   
   1    36   1     0     6     6  0.557      0.557      0.06422   
   1    37   1     0     4     4  0.621      0.621      0.06422   
   1    38   1     0     4     4  0.685      0.685      0.06422   
   1    39   1     0     4     4  0.781      0.781      0.09633   
   1    40   1U    0     5     5  0.781      0.781      0.1445    
   1    40   2     0     4     4  0.817      0.817      0.03612   
   1    41   1     0     2     2  0.872      0.872      0.05418   
   1    42   1     0     4     4  0.953      0.953      0.08127   
   1    43   1     0     4     4  1.00       1.00       0.04709   
                          
 THE ANALYSIS HAS COMPLETED SUCCESSFULLY
