 Abaqus/Standard 2025                  DATE 20-Feb-2026 TIME 21:44:15
 SUMMARY OF JOB INFORMATION:
 STEP  INC ATT SEVERE EQUIL TOTAL  TOTAL      STEP       INC OF       DOF    IF
               DISCON ITERS ITERS  TIME/    TIME/LPF    TIME/LPF    MONITOR RIKS
               ITERS               FREQ
   1     1   1U    0     2     2  0.00       0.00       1.000     
   1     1   2U    0     2     2  0.00       0.00       0.2500    
   1     1   3U    0     2     2  0.00       0.00       0.06250   
   1     1   4U    0     9     9  0.00       0.00       0.01562   
   1     1   5     0     7     7  0.00391    0.00391    0.003906  
   1     2   1     0     6     6  0.00781    0.00781    0.003906  
   1     3   1     0     6     6  0.0117     0.0117     0.003906  
   1     4   1     0     4     4  0.0156     0.0156     0.003906  
   1     5   1     0     4     4  0.0195     0.0195     0.003906  
   1     6   1U    0     5     5  0.0195     0.0195     0.005859  
   1     6   2     0     4     4  0.0210     0.0210     0.001465  
   1     7   1     0     4     4  0.0232     0.0232     0.002197  
   1     8   1     0     4     4  0.0265     0.0265     0.003296  
   1     9   1     0     4     4  0.0314     0.0314     0.004944  
   1    10   1U    0     5     5  0.0314     0.0314     0.007416  
   1    10   2     0     4     4  0.0333     0.0333     0.001854  
   1    11   1     0     4     4  0.0361     0.0361     0.002781  
   1    12   1     0     4     4  0.0402     0.0402     0.004171  
   1    13   1U    0     5     5  0.0402     0.0402     0.006257  
   1    13   2     0     2     2  0.0418     0.0418     0.001564  
   1    14   1     0     4     4  0.0441     0.0441     0.002346  
   1    15   1     0     4     4  0.0477     0.0477     0.003520  
   1    16   1     0     4     4  0.0529     0.0529     0.005279  
   1    17   1U    0     5     5  0.0529     0.0529     0.007919  
   1    17   2     0     4     4  0.0549     0.0549     0.001980  
   1    18   1     0     4     4  0.0579     0.0579     0.002970  
   1    19   1     0     4     4  0.0624     0.0624     0.004454  
   1    20   1     0     4     4  0.0690     0.0690     0.006682  
   1    21   1U    0     5     5  0.0690     0.0690     0.01002   
   1    21   2     0     4     4  0.0715     0.0715     0.002506  
   1    22   1     0     4     4  0.0753     0.0753     0.003758  
   1    23   1     0     4     4  0.0809     0.0809     0.005638  
   1    24   1     0     4     4  0.0894     0.0894     0.008457  
   1    25   1U    0     5     5  0.0894     0.0894     0.01268   
   1    25   2     0     4     4  0.0926     0.0926     0.003171  
   1    26   1     0     4     4  0.0973     0.0973     0.004757  
   1    27   1     0     4     4  0.104      0.104      0.007135  
   1    28   1     0     4     4  0.115      0.115      0.01070   
   1    29   1U    0     5     5  0.115      0.115      0.01605   
   1    29   2     0     4     4  0.119      0.119      0.004014  
   1    30   1     0     4     4  0.125      0.125      0.006020  
   1    31   1     0     4     4  0.134      0.134      0.009031  
   1    32   1     0     4     4  0.148      0.148      0.01355   
   1    33   1U    0     5     5  0.148      0.148      0.02032   
   1    33   2     0     4     4  0.153      0.153      0.005080  
   1    34   1     0     4     4  0.160      0.160      0.007620  
   1    35   1     0     4     4  0.172      0.172      0.01143   
   1    36   1     0     6     6  0.189      0.189      0.01714   
   1    37   1     0     6     6  0.206      0.206      0.01714   
   1    38   1     0     4     4  0.223      0.223      0.01714   
   1    39   1     0     4     4  0.240      0.240      0.01714   
   1    40   1     0     6     6  0.266      0.266      0.02572   
   1    41   1     0     6     6  0.292      0.292      0.02572   
   1    42   1     0     4     4  0.318      0.318      0.02572   
   1    43   1     0     4     4  0.343      0.343      0.02572   
   1    44   1     0     6     6  0.382      0.382      0.03857   
   1    45   1     0     6     6  0.420      0.420      0.03857   
   1    46   1     0     5     5  0.459      0.459      0.03857   
   1    47   1     0     5     5  0.498      0.498      0.03857   
   1    48   1     0     4     4  0.536      0.536      0.03857   
   1    49   1     0     4     4  0.575      0.575      0.03857   
   1    50   1     0     6     6  0.633      0.633      0.05786   
   1    51   1U    0     5     5  0.633      0.633      0.05786   
   1    51   2     0     4     4  0.647      0.647      0.01447   
   1    52   1     0     3     3  0.662      0.662      0.01447   
   1    53   1     0     4     4  0.683      0.683      0.02170   
   1    54   1     0     4     4  0.716      0.716      0.03255   
   1    55   1     0     4     4  0.765      0.765      0.04882   
   1    56   1U    0     5     5  0.765      0.765      0.07323   
   1    56   2     0     4     4  0.783      0.783      0.01831   
   1    57   1U    0     4     4  0.783      0.783      0.02746   
   1    57   2     0     3     3  0.790      0.790      0.006865  
   1    58   1     0     3     3  0.800      0.800      0.01030   
   1    59   1     0     3     3  0.816      0.816      0.01545   
   1    60   1     0     4     4  0.839      0.839      0.02317   
   1    61   1     0     4     4  0.873      0.873      0.03476   
   1    62   1     0     6     6  0.926      0.926      0.05213   
   1    63   1     0     6     6  0.978      0.978      0.05213   
   1    64   1     0     6     6  1.00       1.00       0.02226   
                          
 THE ANALYSIS HAS COMPLETED SUCCESSFULLY
