 Abaqus/Standard 2025                  DATE 21-Feb-2026 TIME 23:09:17
 SUMMARY OF JOB INFORMATION:
 STEP  INC ATT SEVERE EQUIL TOTAL  TOTAL      STEP       INC OF       DOF    IF
               DISCON ITERS ITERS  TIME/    TIME/LPF    TIME/LPF    MONITOR RIKS
               ITERS               FREQ
   1     1   1     0     2     2  0.00100    0.00100    0.001000  
   1     2   1     0     1     1  0.00200    0.00200    0.001000  
   1     3   1     0     1     1  0.00350    0.00350    0.001500  
   1     4   1     0     2     2  0.00575    0.00575    0.002250  
   1     5   1     0     2     2  0.00913    0.00913    0.003375  
   1     6   1     0     2     2  0.0142     0.0142     0.005063  
   1     7   1     0     2     2  0.0218     0.0218     0.007594  
   1     8   1     0     2     2  0.0332     0.0332     0.01139   
   1     9   1     0     4     4  0.0503     0.0503     0.01709   
   1    10   1     0     5     5  0.0759     0.0759     0.02563   
   1    11   1U    0     5     5  0.0759     0.0759     0.02563   
   1    11   2     0     5     5  0.0823     0.0823     0.006407  
   1    12   1     0     4     4  0.0887     0.0887     0.006407  
   1    13   1     0     4     4  0.0951     0.0951     0.006407  
   1    14   1     0     5     5  0.105      0.105      0.009611  
   1    15   1     0     4     4  0.114      0.114      0.009611  
   1    16   1     0     4     4  0.124      0.124      0.009611  
   1    17   1     0     5     5  0.138      0.138      0.01442   
   1    18   1     0     4     4  0.153      0.153      0.01442   
   1    19   1     0     4     4  0.167      0.167      0.01442   
   1    20   1     0     4     4  0.189      0.189      0.02162   
   1    21   1     0     5     5  0.221      0.221      0.03244   
   1    22   1     0     4     4  0.254      0.254      0.03244   
   1    23   1     0     3     3  0.286      0.286      0.03244   
   1    24   1     0     3     3  0.335      0.335      0.04865   
   1    25   1     0     3     3  0.385      0.385      0.05000   
   1    26   1     0     3     3  0.435      0.435      0.05000   
   1    27   1     0     3     3  0.485      0.485      0.05000   
   1    28   1     0     3     3  0.535      0.535      0.05000   
   1    29   1     0     3     3  0.585      0.585      0.05000   
   1    30   1     0     3     3  0.635      0.635      0.05000   
   1    31   1     0     4     4  0.685      0.685      0.05000   
   1    32   1     0     4     4  0.735      0.735      0.05000   
   1    33   1     0     4     4  0.785      0.785      0.05000   
   1    34   1     0     5     5  0.835      0.835      0.05000   
   1    35   1     0     5     5  0.885      0.885      0.05000   
   1    36   1     0     6     6  0.935      0.935      0.05000   
   1    37   1U    0     9     9  0.935      0.935      0.05000   
   1    37   2     0     4     4  0.947      0.947      0.01250   
   1    38   1     0     3     3  0.960      0.960      0.01250   
   1    39   1     0     3     3  0.979      0.979      0.01875   
   1    40   1     0     4     4  1.00       1.00       0.02147   
                          
 THE ANALYSIS HAS COMPLETED SUCCESSFULLY
