1

   Abaqus 2025                                  Date 21-Feb-2026   Time 23:57:36
   For use by UNIVERSITAET STUTTGART under license from Dassault Systemes or its subsidiary.

                                                                                 
                                                                                 
 STEP    1     INCREMENT     1     STEP TIME    0.00    


                        S T E P       1     S T A T I C   A N A L Y S I S


                                                                                          

     AUTOMATIC TIME CONTROL WITH -
          A SUGGESTED INITIAL TIME INCREMENT OF                1.000E-03
          AND A TOTAL TIME PERIOD OF                            1.00    
          THE MINIMUM TIME INCREMENT ALLOWED IS                1.000E-05
          THE MAXIMUM TIME INCREMENT ALLOWED IS                5.000E-02

     LINEAR EQUATION SOLVER TYPE         DIRECT SPARSE

 CONVERGENCE TOLERANCE PARAMETERS FOR FORCE    
     CRITERION FOR RESIDUAL FORCE     FOR A NONLINEAR PROBLEM          5.000E-03
     CRITERION FOR DISP.    CORRECTION IN A NONLINEAR PROBLEM          1.000E-02
     INITIAL VALUE OF TIME AVERAGE FORCE                               1.000E-02
     AVERAGE FORCE     IS TIME AVERAGE FORCE    
     ALTERNATE CRIT. FOR RESIDUAL FORCE     FOR A NONLINEAR PROBLEM    2.000E-02
     CRITERION FOR ZERO FORCE     RELATIVE TO TIME AVRG. FORCE         1.000E-05
     CRITERION FOR RESIDUAL FORCE     WHEN THERE IS ZERO FLUX          1.000E-05
     CRITERION FOR DISP.    CORRECTION WHEN THERE IS ZERO FLUX         1.000E-03
     CRITERION FOR RESIDUAL FORCE     FOR A LINEAR INCREMENT           1.000E-08
     FIELD CONVERSION RATIO                                             1.00    
     CRITERION FOR ZERO FORCE     REL. TO TIME AVRG. MAX. FORCE        1.000E-05
     CRITERION FOR ZERO DISP.    RELATIVE TO CHARACTERISTIC LENGTH     1.000E-08

     VOLUMETRIC STRAIN COMPATIBILITY TOLERANCE FOR HYBRID SOLIDS       1.000E-05
     AXIAL STRAIN COMPATIBILITY TOLERANCE FOR HYBRID BEAMS             1.000E-05
     TRANS. SHEAR STRAIN COMPATIBILITY TOLERANCE FOR HYBRID BEAMS      1.000E-05
     SOFT CONTACT CONSTRAINT COMPATIBILITY TOLERANCE FOR P>P0          5.000E-03
     SOFT CONTACT CONSTRAINT COMPATIBILITY TOLERANCE FOR P=0.0         0.100    
     CONTACT FORCE ERROR TOLERANCE FOR CONVERT SDI=YES                 1.00    
     DISPLACEMENT COMPATIBILITY TOLERANCE FOR DCOUP ELEMENTS           1.000E-05
     ROTATION COMPATIBILITY TOLERANCE FOR DCOUP ELEMENTS               1.000E-05

 EQUILIBRIUM WILL BE CHECKED FOR SEVERE DISCONTINUITY ITERATIONS

 TIME INCREMENTATION CONTROL PARAMETERS:
     FIRST EQUILIBRIUM ITERATION FOR CONSECUTIVE DIVERGENCE CHECK              4
     EQUILIBRIUM ITERATION AT WHICH LOG. CONVERGENCE RATE CHECK BEGINS         8
     EQUILIBRIUM ITERATION AFTER WHICH ALTERNATE RESIDUAL IS USED              9
     MAXIMUM EQUILIBRIUM ITERATIONS ALLOWED                                   16
     EQUILIBRIUM ITERATION COUNT FOR CUT-BACK IN NEXT INCREMENT               10
     MAXIMUM EQUILIB. ITERS IN TWO INCREMENTS FOR TIME INCREMENT INCREASE      4
     MAXIMUM ITERATIONS FOR SEVERE DISCONTINUITIES                            50
     MAXIMUM ATTEMPTS ALLOWED IN AN INCREMENT                                  5
     MAXIMUM DISCON. ITERS IN TWO INCREMENTS FOR TIME INCREMENT INCREASE      50
     MAXIMUM CONTACT AUGMENTATIONS FOR *SURFACE BEHAVIOR,AUGMENTED LAGRANGE   50
     CUT-BACK FACTOR AFTER DIVERGENCE                                 0.2500    
     CUT-BACK FACTOR FOR TOO SLOW CONVERGENCE                         0.5000    
     CUT-BACK FACTOR AFTER TOO MANY EQUILIBRIUM ITERATIONS            0.7500    
     CUT-BACK FACTOR AFTER TOO MANY SEVERE DISCONTINUITY ITERATIONS   0.2500    
     CUT-BACK FACTOR AFTER PROBLEMS IN ELEMENT ASSEMBLY               0.2500    
     INCREASE FACTOR AFTER TWO INCREMENTS THAT CONVERGE QUICKLY        1.500    
     MAX. TIME INCREMENT INCREASE FACTOR ALLOWED                       1.500    
     MAX. TIME INCREMENT INCREASE FACTOR ALLOWED (DYNAMICS)            1.250    
     MAX. TIME INCREMENT INCREASE FACTOR ALLOWED (DIFFUSION)           2.000    
     MINIMUM TIME INCREMENT RATIO FOR EXTRAPOLATION TO OCCUR          0.1000    
     MAX. RATIO OF TIME INCREMENT TO STABILITY LIMIT                   1.000    
     FRACTION OF STABILITY LIMIT FOR NEW TIME INCREMENT               0.9500    
     TIME INCREMENT INCREASE FACTOR BEFORE A TIME POINT                1.000    
     GLOBAL STABILIZATION CONTROL IS NOT USED

          PRINT OF INCREMENT NUMBER, TIME, ETC., EVERY    1  INCREMENTS

     THE MAXIMUM NUMBER OF INCREMENTS IN THIS STEP IS                     100

          LARGE DISPLACEMENT THEORY WILL BE USED

     LINEAR EXTRAPOLATION WILL BE USED

     CHARACTERISTIC ELEMENT LENGTH     8.268E-04

     DETAILS REGARDING ACTUAL SOLUTION WAVEFRONT REQUESTED

     DETAILED OUTPUT OF DIAGNOSTICS TO DATABASE REQUESTED

     PRINT OF INCREMENT NUMBER, TIME, ETC., TO THE MESSAGE FILE EVERY     1  INCREMENTS

     COLLECTING MODEL CONSTRAINT INFORMATION FOR OVERCONSTRAINT CHECKS

     COLLECTING STEP CONSTRAINT INFORMATION FOR OVERCONSTRAINT CHECKS


  INCREMENT     1 STARTS. ATTEMPT NUMBER  1, TIME INCREMENT  1.000E-03
 
	SYMMETRIC PURE THREAD-BASED DIRECT SPARSE SOLVER RUNNING ON
 	1 HOST x 1 MPI RANK PER HOST x 1 THREAD PER RANK
        NUMBER OF EQUATIONS:  90774
        NUMBER OF RHS:        1
        NUMBER OF FLOPS:      6.037e+09
        SOLVER ELAPSED TIME:  232ms

               CONVERGENCE CHECKS FOR EQUILIBRIUM ITERATION     1


 AVERAGE FORCE                      2.663E-04   TIME AVG. FORCE       2.663E-04
 LARGEST SCALED RESIDUAL FORCE     -1.714E-03   AT NODE       9497   DOF  3
   INSTANCE: SPIRAL-1                                                                        
  CORRESPONDING RESIDUAL FORCE     -1.714E-03
 LARGEST INCREMENT OF DISP.        -2.951E-05   AT NODE        160   DOF  3
   INSTANCE: SPIRAL-1                                                                        
 LARGEST CORRECTION TO DISP.       -2.951E-05   AT NODE        160   DOF  3
   INSTANCE: SPIRAL-1                                                                        
          FORCE     EQUILIBRIUM NOT ACHIEVED WITHIN TOLERANCE.
 
	SYMMETRIC PURE THREAD-BASED DIRECT SPARSE SOLVER RUNNING ON
 	1 HOST x 1 MPI RANK PER HOST x 1 THREAD PER RANK
        NUMBER OF EQUATIONS:  90774
        NUMBER OF RHS:        1
        NUMBER OF FLOPS:      6.037e+09
        SOLVER ELAPSED TIME:  233ms

               CONVERGENCE CHECKS FOR EQUILIBRIUM ITERATION     2


 AVERAGE FORCE                      2.268E-04   TIME AVG. FORCE       2.268E-04
 LARGEST SCALED RESIDUAL FORCE     -1.131E-07   AT NODE      23787   DOF  3
   INSTANCE: SPIRAL-1                                                                        
  CORRESPONDING RESIDUAL FORCE     -1.131E-07
 LARGEST INCREMENT OF DISP.        -2.948E-05   AT NODE        160   DOF  3
   INSTANCE: SPIRAL-1                                                                        
 LARGEST CORRECTION TO DISP.        4.170E-08   AT NODE        166   DOF  3
   INSTANCE: SPIRAL-1                                                                        
          THE FORCE     EQUILIBRIUM EQUATIONS HAVE CONVERGED

 ITERATION SUMMARY FOR THE INCREMENT:   2 TOTAL ITERATIONS, OF WHICH
   0 ARE SEVERE DISCONTINUITY ITERATIONS AND  2 ARE EQUILIBRIUM ITERATIONS.

 TIME INCREMENT COMPLETED  1.000E-03,  FRACTION OF STEP COMPLETED  1.000E-03
 STEP TIME COMPLETED       1.000E-03,  TOTAL TIME COMPLETED        1.000E-03


  INCREMENT     2 STARTS. ATTEMPT NUMBER  1, TIME INCREMENT  1.000E-03
 
	SYMMETRIC PURE THREAD-BASED DIRECT SPARSE SOLVER RUNNING ON
 	1 HOST x 1 MPI RANK PER HOST x 1 THREAD PER RANK
        NUMBER OF EQUATIONS:  90774
        NUMBER OF RHS:        1
        NUMBER OF FLOPS:      6.037e+09
        SOLVER ELAPSED TIME:  517ms

               CONVERGENCE CHECKS FOR EQUILIBRIUM ITERATION     1


 AVERAGE FORCE                      4.565E-04   TIME AVG. FORCE       3.416E-04
 LARGEST SCALED RESIDUAL FORCE     -2.268E-07   AT NODE      23787   DOF  3
   INSTANCE: SPIRAL-1                                                                        
  CORRESPONDING RESIDUAL FORCE     -2.268E-07
 LARGEST INCREMENT OF DISP.        -2.934E-05   AT NODE        160   DOF  3
   INSTANCE: SPIRAL-1                                                                        
 LARGEST CORRECTION TO DISP.        1.668E-07   AT NODE        166   DOF  3
   INSTANCE: SPIRAL-1                                                                        
          THE FORCE     EQUILIBRIUM EQUATIONS HAVE CONVERGED
          TIME INCREMENT MAY NOW INCREASE TO    1.500E-03

 ITERATION SUMMARY FOR THE INCREMENT:   1 TOTAL ITERATIONS, OF WHICH
   0 ARE SEVERE DISCONTINUITY ITERATIONS AND  1 ARE EQUILIBRIUM ITERATIONS.

 TIME INCREMENT COMPLETED  1.000E-03,  FRACTION OF STEP COMPLETED  2.000E-03
 STEP TIME COMPLETED       2.000E-03,  TOTAL TIME COMPLETED        2.000E-03


  INCREMENT     3 STARTS. ATTEMPT NUMBER  1, TIME INCREMENT  1.500E-03
 
	SYMMETRIC PURE THREAD-BASED DIRECT SPARSE SOLVER RUNNING ON
 	1 HOST x 1 MPI RANK PER HOST x 1 THREAD PER RANK
        NUMBER OF EQUATIONS:  90774
        NUMBER OF RHS:        1
        NUMBER OF FLOPS:      6.037e+09
        SOLVER ELAPSED TIME:  566ms

               CONVERGENCE CHECKS FOR EQUILIBRIUM ITERATION     1


 AVERAGE FORCE                      7.991E-04   TIME AVG. FORCE       4.941E-04
 LARGEST SCALED RESIDUAL FORCE     -6.401E-07   AT NODE      23787   DOF  3
   INSTANCE: SPIRAL-1                                                                        
  CORRESPONDING RESIDUAL FORCE     -6.401E-07
 LARGEST INCREMENT OF DISP.        -4.385E-05   AT NODE        160   DOF  3
   INSTANCE: SPIRAL-1                                                                        
 LARGEST CORRECTION TO DISP.        1.941E-07   AT NODE        166   DOF  3
   INSTANCE: SPIRAL-1                                                                        
          THE FORCE     EQUILIBRIUM EQUATIONS HAVE CONVERGED
          TIME INCREMENT MAY NOW INCREASE TO    2.250E-03

 ITERATION SUMMARY FOR THE INCREMENT:   1 TOTAL ITERATIONS, OF WHICH
   0 ARE SEVERE DISCONTINUITY ITERATIONS AND  1 ARE EQUILIBRIUM ITERATIONS.

 TIME INCREMENT COMPLETED  1.500E-03,  FRACTION OF STEP COMPLETED  3.500E-03
 STEP TIME COMPLETED       3.500E-03,  TOTAL TIME COMPLETED        3.500E-03


  INCREMENT     4 STARTS. ATTEMPT NUMBER  1, TIME INCREMENT  2.250E-03
 
	SYMMETRIC PURE THREAD-BASED DIRECT SPARSE SOLVER RUNNING ON
 	1 HOST x 1 MPI RANK PER HOST x 1 THREAD PER RANK
        NUMBER OF EQUATIONS:  90774
        NUMBER OF RHS:        1
        NUMBER OF FLOPS:      6.037e+09
        SOLVER ELAPSED TIME:  516ms

               CONVERGENCE CHECKS FOR EQUILIBRIUM ITERATION     1


 AVERAGE FORCE                      1.315E-03   TIME AVG. FORCE       6.993E-04
 LARGEST SCALED RESIDUAL FORCE     -2.163E-06   AT NODE      23787   DOF  3
   INSTANCE: SPIRAL-1                                                                        
  CORRESPONDING RESIDUAL FORCE     -2.163E-06
 LARGEST INCREMENT OF DISP.        -6.537E-05   AT NODE        160   DOF  3
   INSTANCE: SPIRAL-1                                                                        
 LARGEST CORRECTION TO DISP.        4.863E-07   AT NODE        166   DOF  3
   INSTANCE: SPIRAL-1                                                                        
          THE FORCE     EQUILIBRIUM EQUATIONS HAVE CONVERGED
          TIME INCREMENT MAY NOW INCREASE TO    3.375E-03

 ITERATION SUMMARY FOR THE INCREMENT:   1 TOTAL ITERATIONS, OF WHICH
   0 ARE SEVERE DISCONTINUITY ITERATIONS AND  1 ARE EQUILIBRIUM ITERATIONS.

 TIME INCREMENT COMPLETED  2.250E-03,  FRACTION OF STEP COMPLETED  5.750E-03
 STEP TIME COMPLETED       5.750E-03,  TOTAL TIME COMPLETED        5.750E-03


  INCREMENT     5 STARTS. ATTEMPT NUMBER  1, TIME INCREMENT  3.375E-03
 
	SYMMETRIC PURE THREAD-BASED DIRECT SPARSE SOLVER RUNNING ON
 	1 HOST x 1 MPI RANK PER HOST x 1 THREAD PER RANK
        NUMBER OF EQUATIONS:  90774
        NUMBER OF RHS:        1
        NUMBER OF FLOPS:      6.037e+09
        SOLVER ELAPSED TIME:  541ms

               CONVERGENCE CHECKS FOR EQUILIBRIUM ITERATION     1


 AVERAGE FORCE                      2.092E-03   TIME AVG. FORCE       9.779E-04
 LARGEST SCALED RESIDUAL FORCE     -7.308E-06   AT NODE      23787   DOF  3
   INSTANCE: SPIRAL-1                                                                        
  CORRESPONDING RESIDUAL FORCE     -7.308E-06
 LARGEST INCREMENT OF DISP.        -9.721E-05   AT NODE        160   DOF  3
   INSTANCE: SPIRAL-1                                                                        
 LARGEST CORRECTION TO DISP.        1.019E-06   AT NODE        166   DOF  3
   INSTANCE: SPIRAL-1                                                                        
          FORCE     EQUILIBRIUM NOT ACHIEVED WITHIN TOLERANCE.
 
	SYMMETRIC PURE THREAD-BASED DIRECT SPARSE SOLVER RUNNING ON
 	1 HOST x 1 MPI RANK PER HOST x 1 THREAD PER RANK
        NUMBER OF EQUATIONS:  90774
        NUMBER OF RHS:        1
        NUMBER OF FLOPS:      6.037e+09
        SOLVER ELAPSED TIME:  530ms

               CONVERGENCE CHECKS FOR EQUILIBRIUM ITERATION     2


 AVERAGE FORCE                      2.092E-03   TIME AVG. FORCE       9.779E-04
 LARGEST SCALED RESIDUAL FORCE      1.691E-08   AT NODE       5041   DOF  3
   INSTANCE: SPIRAL-1                                                                        
  CORRESPONDING RESIDUAL FORCE      1.691E-08
 LARGEST INCREMENT OF DISP.        -9.720E-05   AT NODE        160   DOF  3
   INSTANCE: SPIRAL-1                                                                        
 LARGEST CORRECTION TO DISP.        1.015E-08   AT NODE         41   DOF  3
   INSTANCE: SPIRAL-1                                                                        
          THE FORCE     EQUILIBRIUM EQUATIONS HAVE CONVERGED
          TIME INCREMENT MAY NOW INCREASE TO    5.063E-03

 ITERATION SUMMARY FOR THE INCREMENT:   2 TOTAL ITERATIONS, OF WHICH
   0 ARE SEVERE DISCONTINUITY ITERATIONS AND  2 ARE EQUILIBRIUM ITERATIONS.

 TIME INCREMENT COMPLETED  3.375E-03,  FRACTION OF STEP COMPLETED  9.125E-03
 STEP TIME COMPLETED       9.125E-03,  TOTAL TIME COMPLETED        9.125E-03


  INCREMENT     6 STARTS. ATTEMPT NUMBER  1, TIME INCREMENT  5.063E-03
 
	SYMMETRIC PURE THREAD-BASED DIRECT SPARSE SOLVER RUNNING ON
 	1 HOST x 1 MPI RANK PER HOST x 1 THREAD PER RANK
        NUMBER OF EQUATIONS:  90774
        NUMBER OF RHS:        1
        NUMBER OF FLOPS:      6.037e+09
        SOLVER ELAPSED TIME:  577ms

               CONVERGENCE CHECKS FOR EQUILIBRIUM ITERATION     1


 AVERAGE FORCE                      3.273E-03   TIME AVG. FORCE       1.360E-03
 LARGEST SCALED RESIDUAL FORCE     -2.465E-05   AT NODE      23787   DOF  3
   INSTANCE: SPIRAL-1                                                                        
  CORRESPONDING RESIDUAL FORCE     -2.465E-05
 LARGEST INCREMENT OF DISP.        -1.441E-04   AT NODE        160   DOF  3
   INSTANCE: SPIRAL-1                                                                        
 LARGEST CORRECTION TO DISP.        2.014E-06   AT NODE        166   DOF  3
   INSTANCE: SPIRAL-1                                                                        
          FORCE     EQUILIBRIUM NOT ACHIEVED WITHIN TOLERANCE.
 
	SYMMETRIC PURE THREAD-BASED DIRECT SPARSE SOLVER RUNNING ON
 	1 HOST x 1 MPI RANK PER HOST x 1 THREAD PER RANK
        NUMBER OF EQUATIONS:  90774
        NUMBER OF RHS:        1
        NUMBER OF FLOPS:      6.037e+09
        SOLVER ELAPSED TIME:  553ms

               CONVERGENCE CHECKS FOR EQUILIBRIUM ITERATION     2


 AVERAGE FORCE                      3.274E-03   TIME AVG. FORCE       1.361E-03
 LARGEST SCALED RESIDUAL FORCE      7.839E-08   AT NODE       5041   DOF  3
   INSTANCE: SPIRAL-1                                                                        
  CORRESPONDING RESIDUAL FORCE      7.839E-08
 LARGEST INCREMENT OF DISP.        -1.441E-04   AT NODE        160   DOF  3
   INSTANCE: SPIRAL-1                                                                        
 LARGEST CORRECTION TO DISP.        2.811E-08   AT NODE         41   DOF  3
   INSTANCE: SPIRAL-1                                                                        
          THE FORCE     EQUILIBRIUM EQUATIONS HAVE CONVERGED
          TIME INCREMENT MAY NOW INCREASE TO    7.594E-03

 ITERATION SUMMARY FOR THE INCREMENT:   2 TOTAL ITERATIONS, OF WHICH
   0 ARE SEVERE DISCONTINUITY ITERATIONS AND  2 ARE EQUILIBRIUM ITERATIONS.

 TIME INCREMENT COMPLETED  5.063E-03,  FRACTION OF STEP COMPLETED  1.419E-02
 STEP TIME COMPLETED       1.419E-02,  TOTAL TIME COMPLETED        1.419E-02


  INCREMENT     7 STARTS. ATTEMPT NUMBER  1, TIME INCREMENT  7.594E-03
 
	SYMMETRIC PURE THREAD-BASED DIRECT SPARSE SOLVER RUNNING ON
 	1 HOST x 1 MPI RANK PER HOST x 1 THREAD PER RANK
        NUMBER OF EQUATIONS:  90774
        NUMBER OF RHS:        1
        NUMBER OF FLOPS:      6.037e+09
        SOLVER ELAPSED TIME:  556ms

               CONVERGENCE CHECKS FOR EQUILIBRIUM ITERATION     1


 AVERAGE FORCE                      5.082E-03   TIME AVG. FORCE       1.892E-03
 LARGEST SCALED RESIDUAL FORCE     -8.285E-05   AT NODE      23787   DOF  3
   INSTANCE: SPIRAL-1                                                                        
  CORRESPONDING RESIDUAL FORCE     -8.285E-05
 LARGEST INCREMENT OF DISP.        -2.131E-04   AT NODE        160   DOF  3
   INSTANCE: SPIRAL-1                                                                        
 LARGEST CORRECTION TO DISP.        3.679E-06   AT NODE        166   DOF  3
   INSTANCE: SPIRAL-1                                                                        
          FORCE     EQUILIBRIUM NOT ACHIEVED WITHIN TOLERANCE.
 
	SYMMETRIC PURE THREAD-BASED DIRECT SPARSE SOLVER RUNNING ON
 	1 HOST x 1 MPI RANK PER HOST x 1 THREAD PER RANK
        NUMBER OF EQUATIONS:  90774
        NUMBER OF RHS:        1
        NUMBER OF FLOPS:      6.037e+09
        SOLVER ELAPSED TIME:  545ms

               CONVERGENCE CHECKS FOR EQUILIBRIUM ITERATION     2


 AVERAGE FORCE                      5.083E-03   TIME AVG. FORCE       1.892E-03
 LARGEST SCALED RESIDUAL FORCE      3.608E-07   AT NODE       5041   DOF  3
   INSTANCE: SPIRAL-1                                                                        
  CORRESPONDING RESIDUAL FORCE      3.608E-07
 LARGEST INCREMENT OF DISP.        -2.131E-04   AT NODE        160   DOF  3
   INSTANCE: SPIRAL-1                                                                        
 LARGEST CORRECTION TO DISP.        7.494E-08   AT NODE         41   DOF  3
   INSTANCE: SPIRAL-1                                                                        
          THE FORCE     EQUILIBRIUM EQUATIONS HAVE CONVERGED
          TIME INCREMENT MAY NOW INCREASE TO    1.139E-02

 ITERATION SUMMARY FOR THE INCREMENT:   2 TOTAL ITERATIONS, OF WHICH
   0 ARE SEVERE DISCONTINUITY ITERATIONS AND  2 ARE EQUILIBRIUM ITERATIONS.

 TIME INCREMENT COMPLETED  7.594E-03,  FRACTION OF STEP COMPLETED  2.178E-02
 STEP TIME COMPLETED       2.178E-02,  TOTAL TIME COMPLETED        2.178E-02


  INCREMENT     8 STARTS. ATTEMPT NUMBER  1, TIME INCREMENT  1.139E-02
 
	SYMMETRIC PURE THREAD-BASED DIRECT SPARSE SOLVER RUNNING ON
 	1 HOST x 1 MPI RANK PER HOST x 1 THREAD PER RANK
        NUMBER OF EQUATIONS:  90774
        NUMBER OF RHS:        1
        NUMBER OF FLOPS:      6.037e+09
        SOLVER ELAPSED TIME:  549ms

               CONVERGENCE CHECKS FOR EQUILIBRIUM ITERATION     1


 AVERAGE FORCE                      7.882E-03   TIME AVG. FORCE       2.641E-03
 LARGEST SCALED RESIDUAL FORCE     -2.758E-04   AT NODE      23787   DOF  3
   INSTANCE: SPIRAL-1                                                                        
  CORRESPONDING RESIDUAL FORCE     -2.758E-04
 LARGEST INCREMENT OF DISP.        -3.150E-04   AT NODE        160   DOF  3
   INSTANCE: SPIRAL-1                                                                        
 LARGEST CORRECTION TO DISP.        5.621E-06   AT NODE         41   DOF  3
   INSTANCE: SPIRAL-1                                                                        
          FORCE     EQUILIBRIUM NOT ACHIEVED WITHIN TOLERANCE.
 
	SYMMETRIC PURE THREAD-BASED DIRECT SPARSE SOLVER RUNNING ON
 	1 HOST x 1 MPI RANK PER HOST x 1 THREAD PER RANK
        NUMBER OF EQUATIONS:  90774
        NUMBER OF RHS:        1
        NUMBER OF FLOPS:      6.037e+09
        SOLVER ELAPSED TIME:  575ms

               CONVERGENCE CHECKS FOR EQUILIBRIUM ITERATION     2


 AVERAGE FORCE                      7.884E-03   TIME AVG. FORCE       2.641E-03
 LARGEST SCALED RESIDUAL FORCE      1.631E-06   AT NODE       5041   DOF  3
   INSTANCE: SPIRAL-1                                                                        
  CORRESPONDING RESIDUAL FORCE      1.631E-06
 LARGEST INCREMENT OF DISP.        -3.149E-04   AT NODE        160   DOF  3
   INSTANCE: SPIRAL-1                                                                        
 LARGEST CORRECTION TO DISP.        1.757E-07   AT NODE         41   DOF  3
   INSTANCE: SPIRAL-1                                                                        
          THE FORCE     EQUILIBRIUM EQUATIONS HAVE CONVERGED
          TIME INCREMENT MAY NOW INCREASE TO    1.709E-02

 ITERATION SUMMARY FOR THE INCREMENT:   2 TOTAL ITERATIONS, OF WHICH
   0 ARE SEVERE DISCONTINUITY ITERATIONS AND  2 ARE EQUILIBRIUM ITERATIONS.

 TIME INCREMENT COMPLETED  1.139E-02,  FRACTION OF STEP COMPLETED  3.317E-02
 STEP TIME COMPLETED       3.317E-02,  TOTAL TIME COMPLETED        3.317E-02


  INCREMENT     9 STARTS. ATTEMPT NUMBER  1, TIME INCREMENT  1.709E-02
 
	SYMMETRIC PURE THREAD-BASED DIRECT SPARSE SOLVER RUNNING ON
 	1 HOST x 1 MPI RANK PER HOST x 1 THREAD PER RANK
        NUMBER OF EQUATIONS:  90774
        NUMBER OF RHS:        1
        NUMBER OF FLOPS:      6.037e+09
        SOLVER ELAPSED TIME:  555ms

               CONVERGENCE CHECKS FOR EQUILIBRIUM ITERATION     1


 AVERAGE FORCE                      1.230E-02   TIME AVG. FORCE       3.714E-03
 LARGEST SCALED RESIDUAL FORCE     -8.966E-04   AT NODE      23787   DOF  3
   INSTANCE: SPIRAL-1                                                                        
  CORRESPONDING RESIDUAL FORCE     -8.966E-04
 LARGEST INCREMENT OF DISP.        -4.678E-04   AT NODE        160   DOF  3
   INSTANCE: SPIRAL-1                                                                        
 LARGEST CORRECTION TO DISP.        5.436E-06   AT NODE         41   DOF  3
   INSTANCE: SPIRAL-1                                                                        
          FORCE     EQUILIBRIUM NOT ACHIEVED WITHIN TOLERANCE.
 
	SYMMETRIC PURE THREAD-BASED DIRECT SPARSE SOLVER RUNNING ON
 	1 HOST x 1 MPI RANK PER HOST x 1 THREAD PER RANK
        NUMBER OF EQUATIONS:  90774
        NUMBER OF RHS:        1
        NUMBER OF FLOPS:      6.037e+09
        SOLVER ELAPSED TIME:  599ms

               CONVERGENCE CHECKS FOR EQUILIBRIUM ITERATION     2


 AVERAGE FORCE                      1.230E-02   TIME AVG. FORCE       3.715E-03
 LARGEST SCALED RESIDUAL FORCE      7.526E-06   AT NODE       5041   DOF  3
   INSTANCE: SPIRAL-1                                                                        
  CORRESPONDING RESIDUAL FORCE      7.526E-06
 LARGEST INCREMENT OF DISP.        -4.676E-04   AT NODE        160   DOF  3
   INSTANCE: SPIRAL-1                                                                        
 LARGEST CORRECTION TO DISP.        3.623E-07   AT NODE         41   DOF  3
   INSTANCE: SPIRAL-1                                                                        
          THE FORCE     EQUILIBRIUM EQUATIONS HAVE CONVERGED
          TIME INCREMENT MAY NOW INCREASE TO    2.563E-02

 ITERATION SUMMARY FOR THE INCREMENT:   2 TOTAL ITERATIONS, OF WHICH
   0 ARE SEVERE DISCONTINUITY ITERATIONS AND  2 ARE EQUILIBRIUM ITERATIONS.

 TIME INCREMENT COMPLETED  1.709E-02,  FRACTION OF STEP COMPLETED  5.026E-02
 STEP TIME COMPLETED       5.026E-02,  TOTAL TIME COMPLETED        5.026E-02


  INCREMENT    10 STARTS. ATTEMPT NUMBER  1, TIME INCREMENT  2.563E-02
 
	SYMMETRIC PURE THREAD-BASED DIRECT SPARSE SOLVER RUNNING ON
 	1 HOST x 1 MPI RANK PER HOST x 1 THREAD PER RANK
        NUMBER OF EQUATIONS:  90774
        NUMBER OF RHS:        1
        NUMBER OF FLOPS:      6.037e+09
        SOLVER ELAPSED TIME:  567ms

               CONVERGENCE CHECKS FOR EQUILIBRIUM ITERATION     1


 AVERAGE FORCE                      1.944E-02   TIME AVG. FORCE       5.287E-03
 LARGEST SCALED RESIDUAL FORCE     -2.756E-03   AT NODE      23787   DOF  3
   INSTANCE: SPIRAL-1                                                                        
  CORRESPONDING RESIDUAL FORCE     -2.756E-03
 LARGEST INCREMENT OF DISP.        -7.038E-04   AT NODE        160   DOF  3
   INSTANCE: SPIRAL-1                                                                        
 LARGEST CORRECTION TO DISP.       -8.045E-06   AT NODE        292   DOF  3
   INSTANCE: SPIRAL-1                                                                        
          FORCE     EQUILIBRIUM NOT ACHIEVED WITHIN TOLERANCE.
 
	SYMMETRIC PURE THREAD-BASED DIRECT SPARSE SOLVER RUNNING ON
 	1 HOST x 1 MPI RANK PER HOST x 1 THREAD PER RANK
        NUMBER OF EQUATIONS:  90774
        NUMBER OF RHS:        1
        NUMBER OF FLOPS:      6.037e+09
        SOLVER ELAPSED TIME:  536ms

               CONVERGENCE CHECKS FOR EQUILIBRIUM ITERATION     2


 AVERAGE FORCE                      1.944E-02   TIME AVG. FORCE       5.287E-03
 LARGEST SCALED RESIDUAL FORCE      3.737E-05   AT NODE       5041   DOF  3
   INSTANCE: SPIRAL-1                                                                        
  CORRESPONDING RESIDUAL FORCE      3.737E-05
 LARGEST INCREMENT OF DISP.        -7.033E-04   AT NODE        160   DOF  3
   INSTANCE: SPIRAL-1                                                                        
 LARGEST CORRECTION TO DISP.        6.806E-07   AT NODE         41   DOF  3
   INSTANCE: SPIRAL-1                                                                        
          FORCE     EQUILIBRIUM NOT ACHIEVED WITHIN TOLERANCE.
 
	SYMMETRIC PURE THREAD-BASED DIRECT SPARSE SOLVER RUNNING ON
 	1 HOST x 1 MPI RANK PER HOST x 1 THREAD PER RANK
        NUMBER OF EQUATIONS:  90774
        NUMBER OF RHS:        1
        NUMBER OF FLOPS:      6.037e+09
        SOLVER ELAPSED TIME:  519ms

               CONVERGENCE CHECKS FOR EQUILIBRIUM ITERATION     3


 AVERAGE FORCE                      1.944E-02   TIME AVG. FORCE       5.287E-03
 LARGEST SCALED RESIDUAL FORCE      9.856E-07   AT NODE       5041   DOF  1
   INSTANCE: SPIRAL-1                                                                        
  CORRESPONDING RESIDUAL FORCE      9.856E-07
 LARGEST INCREMENT OF DISP.        -7.032E-04   AT NODE        160   DOF  3
   INSTANCE: SPIRAL-1                                                                        
 LARGEST CORRECTION TO DISP.        7.918E-08   AT NODE         41   DOF  3
   INSTANCE: SPIRAL-1                                                                        
          THE FORCE     EQUILIBRIUM EQUATIONS HAVE CONVERGED
          TIME INCREMENT MAY NOW INCREASE TO    3.844E-02

 ITERATION SUMMARY FOR THE INCREMENT:   3 TOTAL ITERATIONS, OF WHICH
   0 ARE SEVERE DISCONTINUITY ITERATIONS AND  3 ARE EQUILIBRIUM ITERATIONS.

 TIME INCREMENT COMPLETED  2.563E-02,  FRACTION OF STEP COMPLETED  7.589E-02
 STEP TIME COMPLETED       7.589E-02,  TOTAL TIME COMPLETED        7.589E-02


  INCREMENT    11 STARTS. ATTEMPT NUMBER  1, TIME INCREMENT  3.844E-02
 
	SYMMETRIC PURE THREAD-BASED DIRECT SPARSE SOLVER RUNNING ON
 	1 HOST x 1 MPI RANK PER HOST x 1 THREAD PER RANK
        NUMBER OF EQUATIONS:  90774
        NUMBER OF RHS:        1
        NUMBER OF FLOPS:      6.037e+09
        SOLVER ELAPSED TIME:  608ms

               CONVERGENCE CHECKS FOR EQUILIBRIUM ITERATION     1


 AVERAGE FORCE                      3.139E-02   TIME AVG. FORCE       7.660E-03
 LARGEST SCALED RESIDUAL FORCE     -7.439E-03   AT NODE      23787   DOF  3
   INSTANCE: SPIRAL-1                                                                        
  CORRESPONDING RESIDUAL FORCE     -7.439E-03
 LARGEST INCREMENT OF DISP.        -1.077E-03   AT NODE        160   DOF  3
   INSTANCE: SPIRAL-1                                                                        
 LARGEST CORRECTION TO DISP.       -2.913E-05   AT NODE        301   DOF  3
   INSTANCE: SPIRAL-1                                                                        
          FORCE     EQUILIBRIUM NOT ACHIEVED WITHIN TOLERANCE.
 
	SYMMETRIC PURE THREAD-BASED DIRECT SPARSE SOLVER RUNNING ON
 	1 HOST x 1 MPI RANK PER HOST x 1 THREAD PER RANK
        NUMBER OF EQUATIONS:  90774
        NUMBER OF RHS:        1
        NUMBER OF FLOPS:      6.037e+09
        SOLVER ELAPSED TIME:  543ms

               CONVERGENCE CHECKS FOR EQUILIBRIUM ITERATION     2


 AVERAGE FORCE                      3.140E-02   TIME AVG. FORCE       7.661E-03
 LARGEST SCALED RESIDUAL FORCE      2.018E-04   AT NODE       5041   DOF  3
   INSTANCE: SPIRAL-1                                                                        
  CORRESPONDING RESIDUAL FORCE      2.018E-04
 LARGEST INCREMENT OF DISP.        -1.077E-03   AT NODE        160   DOF  3
   INSTANCE: SPIRAL-1                                                                        
 LARGEST CORRECTION TO DISP.       -7.184E-07   AT NODE        414   DOF  3
   INSTANCE: SPIRAL-1                                                                        
          FORCE     EQUILIBRIUM NOT ACHIEVED WITHIN TOLERANCE.
 
	SYMMETRIC PURE THREAD-BASED DIRECT SPARSE SOLVER RUNNING ON
 	1 HOST x 1 MPI RANK PER HOST x 1 THREAD PER RANK
        NUMBER OF EQUATIONS:  90774
        NUMBER OF RHS:        1
        NUMBER OF FLOPS:      6.037e+09
        SOLVER ELAPSED TIME:  541ms

               CONVERGENCE CHECKS FOR EQUILIBRIUM ITERATION     3


 AVERAGE FORCE                      3.140E-02   TIME AVG. FORCE       7.661E-03
 LARGEST SCALED RESIDUAL FORCE      9.285E-06   AT NODE       5041   DOF  1
   INSTANCE: SPIRAL-1                                                                        
  CORRESPONDING RESIDUAL FORCE      9.285E-06
 LARGEST INCREMENT OF DISP.        -1.076E-03   AT NODE        160   DOF  3
   INSTANCE: SPIRAL-1                                                                        
 LARGEST CORRECTION TO DISP.        3.405E-07   AT NODE         41   DOF  3
   INSTANCE: SPIRAL-1                                                                        
          THE FORCE     EQUILIBRIUM EQUATIONS HAVE CONVERGED
          TIME INCREMENT MAY NOW INCREASE TO    5.000E-02

 ITERATION SUMMARY FOR THE INCREMENT:   3 TOTAL ITERATIONS, OF WHICH
   0 ARE SEVERE DISCONTINUITY ITERATIONS AND  3 ARE EQUILIBRIUM ITERATIONS.

 TIME INCREMENT COMPLETED  3.844E-02,  FRACTION OF STEP COMPLETED  0.114    
 STEP TIME COMPLETED       0.114    ,  TOTAL TIME COMPLETED        0.114    


  INCREMENT    12 STARTS. ATTEMPT NUMBER  1, TIME INCREMENT  5.000E-02
 
	SYMMETRIC PURE THREAD-BASED DIRECT SPARSE SOLVER RUNNING ON
 	1 HOST x 1 MPI RANK PER HOST x 1 THREAD PER RANK
        NUMBER OF EQUATIONS:  90774
        NUMBER OF RHS:        1
        NUMBER OF FLOPS:      6.037e+09
        SOLVER ELAPSED TIME:  579ms

               CONVERGENCE CHECKS FOR EQUILIBRIUM ITERATION     1


 AVERAGE FORCE                      4.930E-02   TIME AVG. FORCE       1.113E-02
 LARGEST SCALED RESIDUAL FORCE     -2.251E-02   AT NODE       6894   DOF  3
   INSTANCE: SPIRAL-1                                                                        
  CORRESPONDING RESIDUAL FORCE     -2.251E-02
 LARGEST INCREMENT OF DISP.        -1.437E-03   AT NODE        160   DOF  3
   INSTANCE: SPIRAL-1                                                                        
 LARGEST CORRECTION TO DISP.       -5.137E-05   AT NODE        301   DOF  3
   INSTANCE: SPIRAL-1                                                                        
          FORCE     EQUILIBRIUM NOT ACHIEVED WITHIN TOLERANCE.
 
	SYMMETRIC PURE THREAD-BASED DIRECT SPARSE SOLVER RUNNING ON
 	1 HOST x 1 MPI RANK PER HOST x 1 THREAD PER RANK
        NUMBER OF EQUATIONS:  90774
        NUMBER OF RHS:        1
        NUMBER OF FLOPS:      6.037e+09
        SOLVER ELAPSED TIME:  517ms

               CONVERGENCE CHECKS FOR EQUILIBRIUM ITERATION     2


 AVERAGE FORCE                      4.926E-02   TIME AVG. FORCE       1.113E-02
 LARGEST SCALED RESIDUAL FORCE      7.507E-04   AT NODE       5041   DOF  3
   INSTANCE: SPIRAL-1                                                                        
  CORRESPONDING RESIDUAL FORCE      7.507E-04
 LARGEST INCREMENT OF DISP.        -1.439E-03   AT NODE        160   DOF  3
   INSTANCE: SPIRAL-1                                                                        
 LARGEST CORRECTION TO DISP.       -2.124E-06   AT NODE        741   DOF  3
   INSTANCE: SPIRAL-1                                                                        
          FORCE     EQUILIBRIUM NOT ACHIEVED WITHIN TOLERANCE.
 
	SYMMETRIC PURE THREAD-BASED DIRECT SPARSE SOLVER RUNNING ON
 	1 HOST x 1 MPI RANK PER HOST x 1 THREAD PER RANK
        NUMBER OF EQUATIONS:  90774
        NUMBER OF RHS:        1
        NUMBER OF FLOPS:      6.037e+09
        SOLVER ELAPSED TIME:  562ms

               CONVERGENCE CHECKS FOR EQUILIBRIUM ITERATION     3


 AVERAGE FORCE                      4.927E-02   TIME AVG. FORCE       1.113E-02
 LARGEST SCALED RESIDUAL FORCE      5.473E-05   AT NODE       5041   DOF  1
   INSTANCE: SPIRAL-1                                                                        
  CORRESPONDING RESIDUAL FORCE      5.473E-05
 LARGEST INCREMENT OF DISP.        -1.438E-03   AT NODE        160   DOF  3
   INSTANCE: SPIRAL-1                                                                        
 LARGEST CORRECTION TO DISP.        1.743E-07   AT NODE         41   DOF  3
   INSTANCE: SPIRAL-1                                                                        
          THE FORCE     EQUILIBRIUM EQUATIONS HAVE CONVERGED

 ITERATION SUMMARY FOR THE INCREMENT:   3 TOTAL ITERATIONS, OF WHICH
   0 ARE SEVERE DISCONTINUITY ITERATIONS AND  3 ARE EQUILIBRIUM ITERATIONS.

 TIME INCREMENT COMPLETED  5.000E-02,  FRACTION OF STEP COMPLETED  0.164    
 STEP TIME COMPLETED       0.164    ,  TOTAL TIME COMPLETED        0.164    


  INCREMENT    13 STARTS. ATTEMPT NUMBER  1, TIME INCREMENT  5.000E-02
 
	SYMMETRIC PURE THREAD-BASED DIRECT SPARSE SOLVER RUNNING ON
 	1 HOST x 1 MPI RANK PER HOST x 1 THREAD PER RANK
        NUMBER OF EQUATIONS:  90774
        NUMBER OF RHS:        1
        NUMBER OF FLOPS:      6.037e+09
        SOLVER ELAPSED TIME:  558ms

               CONVERGENCE CHECKS FOR EQUILIBRIUM ITERATION     1


 AVERAGE FORCE                      6.979E-02   TIME AVG. FORCE       1.564E-02
 LARGEST SCALED RESIDUAL FORCE     -3.058E-02   AT NODE       6894   DOF  3
   INSTANCE: SPIRAL-1                                                                        
  CORRESPONDING RESIDUAL FORCE     -3.058E-02
 LARGEST INCREMENT OF DISP.        -1.460E-03   AT NODE        160   DOF  3
   INSTANCE: SPIRAL-1                                                                        
 LARGEST CORRECTION TO DISP.       -4.843E-05   AT NODE        292   DOF  3
   INSTANCE: SPIRAL-1                                                                        
          FORCE     EQUILIBRIUM NOT ACHIEVED WITHIN TOLERANCE.
 
	SYMMETRIC PURE THREAD-BASED DIRECT SPARSE SOLVER RUNNING ON
 	1 HOST x 1 MPI RANK PER HOST x 1 THREAD PER RANK
        NUMBER OF EQUATIONS:  90774
        NUMBER OF RHS:        1
        NUMBER OF FLOPS:      6.037e+09
        SOLVER ELAPSED TIME:  531ms

               CONVERGENCE CHECKS FOR EQUILIBRIUM ITERATION     2


 AVERAGE FORCE                      6.976E-02   TIME AVG. FORCE       1.564E-02
 LARGEST SCALED RESIDUAL FORCE      1.314E-03   AT NODE       5041   DOF  3
   INSTANCE: SPIRAL-1                                                                        
  CORRESPONDING RESIDUAL FORCE      1.314E-03
 LARGEST INCREMENT OF DISP.        -1.462E-03   AT NODE        160   DOF  3
   INSTANCE: SPIRAL-1                                                                        
 LARGEST CORRECTION TO DISP.       -3.195E-06   AT NODE        741   DOF  3
   INSTANCE: SPIRAL-1                                                                        
          FORCE     EQUILIBRIUM NOT ACHIEVED WITHIN TOLERANCE.
 
	SYMMETRIC PURE THREAD-BASED DIRECT SPARSE SOLVER RUNNING ON
 	1 HOST x 1 MPI RANK PER HOST x 1 THREAD PER RANK
        NUMBER OF EQUATIONS:  90774
        NUMBER OF RHS:        1
        NUMBER OF FLOPS:      6.037e+09
        SOLVER ELAPSED TIME:  595ms

               CONVERGENCE CHECKS FOR EQUILIBRIUM ITERATION     3


 AVERAGE FORCE                      6.977E-02   TIME AVG. FORCE       1.564E-02
 LARGEST SCALED RESIDUAL FORCE      1.101E-04   AT NODE       5041   DOF  1
   INSTANCE: SPIRAL-1                                                                        
  CORRESPONDING RESIDUAL FORCE      1.101E-04
 LARGEST INCREMENT OF DISP.        -1.463E-03   AT NODE        160   DOF  3
   INSTANCE: SPIRAL-1                                                                        
 LARGEST CORRECTION TO DISP.       -4.645E-07   AT NODE         41   DOF  3
   INSTANCE: SPIRAL-1                                                                        
          FORCE     EQUILIBRIUM NOT ACHIEVED WITHIN TOLERANCE.
 
	SYMMETRIC PURE THREAD-BASED DIRECT SPARSE SOLVER RUNNING ON
 	1 HOST x 1 MPI RANK PER HOST x 1 THREAD PER RANK
        NUMBER OF EQUATIONS:  90774
        NUMBER OF RHS:        1
        NUMBER OF FLOPS:      6.037e+09
        SOLVER ELAPSED TIME:  616ms

               CONVERGENCE CHECKS FOR EQUILIBRIUM ITERATION     4


 AVERAGE FORCE                      6.977E-02   TIME AVG. FORCE       1.564E-02
 LARGEST SCALED RESIDUAL FORCE      6.298E-06   AT NODE       5090   DOF  3
   INSTANCE: SPIRAL-1                                                                        
  CORRESPONDING RESIDUAL FORCE      6.298E-06
 LARGEST INCREMENT OF DISP.        -1.463E-03   AT NODE        160   DOF  3
   INSTANCE: SPIRAL-1                                                                        
 LARGEST CORRECTION TO DISP.       -5.146E-10   AT NODE         41   DOF  3
   INSTANCE: SPIRAL-1                                                                        
          THE FORCE     EQUILIBRIUM EQUATIONS HAVE CONVERGED

 ITERATION SUMMARY FOR THE INCREMENT:   4 TOTAL ITERATIONS, OF WHICH
   0 ARE SEVERE DISCONTINUITY ITERATIONS AND  4 ARE EQUILIBRIUM ITERATIONS.

 TIME INCREMENT COMPLETED  5.000E-02,  FRACTION OF STEP COMPLETED  0.214    
 STEP TIME COMPLETED       0.214    ,  TOTAL TIME COMPLETED        0.214    


  INCREMENT    14 STARTS. ATTEMPT NUMBER  1, TIME INCREMENT  5.000E-02
 
	SYMMETRIC PURE THREAD-BASED DIRECT SPARSE SOLVER RUNNING ON
 	1 HOST x 1 MPI RANK PER HOST x 1 THREAD PER RANK
        NUMBER OF EQUATIONS:  90774
        NUMBER OF RHS:        1
        NUMBER OF FLOPS:      6.037e+09
        SOLVER ELAPSED TIME:  551ms

               CONVERGENCE CHECKS FOR EQUILIBRIUM ITERATION     1


 AVERAGE FORCE                      9.304E-02   TIME AVG. FORCE       2.117E-02
 LARGEST SCALED RESIDUAL FORCE     -2.613E-02   AT NODE       6894   DOF  3
   INSTANCE: SPIRAL-1                                                                        
  CORRESPONDING RESIDUAL FORCE     -2.613E-02
 LARGEST INCREMENT OF DISP.        -1.471E-03   AT NODE        301   DOF  3
   INSTANCE: SPIRAL-1                                                                        
 LARGEST CORRECTION TO DISP.       -4.100E-05   AT NODE       3848   DOF  3
   INSTANCE: SPIRAL-1                                                                        
          FORCE     EQUILIBRIUM NOT ACHIEVED WITHIN TOLERANCE.
 
	SYMMETRIC PURE THREAD-BASED DIRECT SPARSE SOLVER RUNNING ON
 	1 HOST x 1 MPI RANK PER HOST x 1 THREAD PER RANK
        NUMBER OF EQUATIONS:  90774
        NUMBER OF RHS:        1
        NUMBER OF FLOPS:      6.037e+09
        SOLVER ELAPSED TIME:  538ms

               CONVERGENCE CHECKS FOR EQUILIBRIUM ITERATION     2


 AVERAGE FORCE                      9.305E-02   TIME AVG. FORCE       2.117E-02
 LARGEST SCALED RESIDUAL FORCE      1.925E-03   AT NODE       5041   DOF  3
   INSTANCE: SPIRAL-1                                                                        
  CORRESPONDING RESIDUAL FORCE      1.925E-03
 LARGEST INCREMENT OF DISP.        -1.475E-03   AT NODE        301   DOF  3
   INSTANCE: SPIRAL-1                                                                        
 LARGEST CORRECTION TO DISP.       -4.099E-06   AT NODE        319   DOF  3
   INSTANCE: SPIRAL-1                                                                        
          FORCE     EQUILIBRIUM NOT ACHIEVED WITHIN TOLERANCE.
 
	SYMMETRIC PURE THREAD-BASED DIRECT SPARSE SOLVER RUNNING ON
 	1 HOST x 1 MPI RANK PER HOST x 1 THREAD PER RANK
        NUMBER OF EQUATIONS:  90774
        NUMBER OF RHS:        1
        NUMBER OF FLOPS:      6.037e+09
        SOLVER ELAPSED TIME:  579ms

               CONVERGENCE CHECKS FOR EQUILIBRIUM ITERATION     3


 AVERAGE FORCE                      9.306E-02   TIME AVG. FORCE       2.117E-02
 LARGEST SCALED RESIDUAL FORCE      1.771E-04   AT NODE       5041   DOF  1
   INSTANCE: SPIRAL-1                                                                        
  CORRESPONDING RESIDUAL FORCE      1.771E-04
 LARGEST INCREMENT OF DISP.        -1.476E-03   AT NODE        301   DOF  3
   INSTANCE: SPIRAL-1                                                                        
 LARGEST CORRECTION TO DISP.       -4.507E-07   AT NODE         41   DOF  3
   INSTANCE: SPIRAL-1                                                                        
          FORCE     EQUILIBRIUM NOT ACHIEVED WITHIN TOLERANCE.
 
	SYMMETRIC PURE THREAD-BASED DIRECT SPARSE SOLVER RUNNING ON
 	1 HOST x 1 MPI RANK PER HOST x 1 THREAD PER RANK
        NUMBER OF EQUATIONS:  90774
        NUMBER OF RHS:        1
        NUMBER OF FLOPS:      6.037e+09
        SOLVER ELAPSED TIME:  590ms

               CONVERGENCE CHECKS FOR EQUILIBRIUM ITERATION     4


 AVERAGE FORCE                      9.306E-02   TIME AVG. FORCE       2.117E-02
 LARGEST SCALED RESIDUAL FORCE      1.114E-05   AT NODE       5090   DOF  3
   INSTANCE: SPIRAL-1                                                                        
  CORRESPONDING RESIDUAL FORCE      1.114E-05
 LARGEST INCREMENT OF DISP.        -1.476E-03   AT NODE        301   DOF  3
   INSTANCE: SPIRAL-1                                                                        
 LARGEST CORRECTION TO DISP.        1.134E-09   AT NODE       2434   DOF  3
   INSTANCE: SPIRAL-1                                                                        
          THE FORCE     EQUILIBRIUM EQUATIONS HAVE CONVERGED

 ITERATION SUMMARY FOR THE INCREMENT:   4 TOTAL ITERATIONS, OF WHICH
   0 ARE SEVERE DISCONTINUITY ITERATIONS AND  4 ARE EQUILIBRIUM ITERATIONS.

 TIME INCREMENT COMPLETED  5.000E-02,  FRACTION OF STEP COMPLETED  0.264    
 STEP TIME COMPLETED       0.264    ,  TOTAL TIME COMPLETED        0.264    


  INCREMENT    15 STARTS. ATTEMPT NUMBER  1, TIME INCREMENT  5.000E-02
 
	SYMMETRIC PURE THREAD-BASED DIRECT SPARSE SOLVER RUNNING ON
 	1 HOST x 1 MPI RANK PER HOST x 1 THREAD PER RANK
        NUMBER OF EQUATIONS:  90774
        NUMBER OF RHS:        1
        NUMBER OF FLOPS:      6.037e+09
        SOLVER ELAPSED TIME:  606ms

               CONVERGENCE CHECKS FOR EQUILIBRIUM ITERATION     1


 AVERAGE FORCE                      0.119       TIME AVG. FORCE       2.772E-02
 LARGEST SCALED RESIDUAL FORCE     -2.017E-02   AT NODE       6894   DOF  3
   INSTANCE: SPIRAL-1                                                                        
  CORRESPONDING RESIDUAL FORCE     -2.017E-02
 LARGEST INCREMENT OF DISP.        -1.483E-03   AT NODE        301   DOF  3
   INSTANCE: SPIRAL-1                                                                        
 LARGEST CORRECTION TO DISP.       -3.710E-05   AT NODE       3854   DOF  3
   INSTANCE: SPIRAL-1                                                                        
          FORCE     EQUILIBRIUM NOT ACHIEVED WITHIN TOLERANCE.
 
	SYMMETRIC PURE THREAD-BASED DIRECT SPARSE SOLVER RUNNING ON
 	1 HOST x 1 MPI RANK PER HOST x 1 THREAD PER RANK
        NUMBER OF EQUATIONS:  90774
        NUMBER OF RHS:        1
        NUMBER OF FLOPS:      6.037e+09
        SOLVER ELAPSED TIME:  559ms

               CONVERGENCE CHECKS FOR EQUILIBRIUM ITERATION     2


 AVERAGE FORCE                      0.120       TIME AVG. FORCE       2.773E-02
 LARGEST SCALED RESIDUAL FORCE      2.593E-03   AT NODE       5041   DOF  3
   INSTANCE: SPIRAL-1                                                                        
  CORRESPONDING RESIDUAL FORCE      2.593E-03
 LARGEST INCREMENT OF DISP.        -1.487E-03   AT NODE        301   DOF  3
   INSTANCE: SPIRAL-1                                                                        
 LARGEST CORRECTION TO DISP.       -4.532E-06   AT NODE        319   DOF  3
   INSTANCE: SPIRAL-1                                                                        
          FORCE     EQUILIBRIUM NOT ACHIEVED WITHIN TOLERANCE.
 
	SYMMETRIC PURE THREAD-BASED DIRECT SPARSE SOLVER RUNNING ON
 	1 HOST x 1 MPI RANK PER HOST x 1 THREAD PER RANK
        NUMBER OF EQUATIONS:  90774
        NUMBER OF RHS:        1
        NUMBER OF FLOPS:      6.037e+09
        SOLVER ELAPSED TIME:  588ms

               CONVERGENCE CHECKS FOR EQUILIBRIUM ITERATION     3


 AVERAGE FORCE                      0.120       TIME AVG. FORCE       2.773E-02
 LARGEST SCALED RESIDUAL FORCE      2.598E-04   AT NODE       5041   DOF  1
   INSTANCE: SPIRAL-1                                                                        
  CORRESPONDING RESIDUAL FORCE      2.598E-04
 LARGEST INCREMENT OF DISP.        -1.488E-03   AT NODE        301   DOF  3
   INSTANCE: SPIRAL-1                                                                        
 LARGEST CORRECTION TO DISP.       -3.494E-07   AT NODE         41   DOF  3
   INSTANCE: SPIRAL-1                                                                        
          FORCE     EQUILIBRIUM NOT ACHIEVED WITHIN TOLERANCE.
 
	SYMMETRIC PURE THREAD-BASED DIRECT SPARSE SOLVER RUNNING ON
 	1 HOST x 1 MPI RANK PER HOST x 1 THREAD PER RANK
        NUMBER OF EQUATIONS:  90774
        NUMBER OF RHS:        1
        NUMBER OF FLOPS:      6.037e+09
        SOLVER ELAPSED TIME:  581ms

               CONVERGENCE CHECKS FOR EQUILIBRIUM ITERATION     4


 AVERAGE FORCE                      0.120       TIME AVG. FORCE       2.773E-02
 LARGEST SCALED RESIDUAL FORCE      1.744E-05   AT NODE       5090   DOF  3
   INSTANCE: SPIRAL-1                                                                        
  CORRESPONDING RESIDUAL FORCE      1.744E-05
 LARGEST INCREMENT OF DISP.        -1.488E-03   AT NODE        301   DOF  3
   INSTANCE: SPIRAL-1                                                                        
 LARGEST CORRECTION TO DISP.        2.220E-09   AT NODE        319   DOF  3
   INSTANCE: SPIRAL-1                                                                        
          THE FORCE     EQUILIBRIUM EQUATIONS HAVE CONVERGED

 ITERATION SUMMARY FOR THE INCREMENT:   4 TOTAL ITERATIONS, OF WHICH
   0 ARE SEVERE DISCONTINUITY ITERATIONS AND  4 ARE EQUILIBRIUM ITERATIONS.

 TIME INCREMENT COMPLETED  5.000E-02,  FRACTION OF STEP COMPLETED  0.314    
 STEP TIME COMPLETED       0.314    ,  TOTAL TIME COMPLETED        0.314    


  INCREMENT    16 STARTS. ATTEMPT NUMBER  1, TIME INCREMENT  5.000E-02
 
	SYMMETRIC PURE THREAD-BASED DIRECT SPARSE SOLVER RUNNING ON
 	1 HOST x 1 MPI RANK PER HOST x 1 THREAD PER RANK
        NUMBER OF EQUATIONS:  90774
        NUMBER OF RHS:        1
        NUMBER OF FLOPS:      6.037e+09
        SOLVER ELAPSED TIME:  650ms

               CONVERGENCE CHECKS FOR EQUILIBRIUM ITERATION     1


 AVERAGE FORCE                      0.149       TIME AVG. FORCE       3.529E-02
 LARGEST SCALED RESIDUAL FORCE     -2.931E-02   AT NODE        838   DOF  3
   INSTANCE: SPIRAL-1                                                                        
  CORRESPONDING RESIDUAL FORCE     -2.931E-02
 LARGEST INCREMENT OF DISP.        -1.501E-03   AT NODE        301   DOF  3
   INSTANCE: SPIRAL-1                                                                        
 LARGEST CORRECTION TO DISP.       -3.769E-05   AT NODE        292   DOF  3
   INSTANCE: SPIRAL-1                                                                        
          FORCE     EQUILIBRIUM NOT ACHIEVED WITHIN TOLERANCE.
 
	SYMMETRIC PURE THREAD-BASED DIRECT SPARSE SOLVER RUNNING ON
 	1 HOST x 1 MPI RANK PER HOST x 1 THREAD PER RANK
        NUMBER OF EQUATIONS:  90774
        NUMBER OF RHS:        1
        NUMBER OF FLOPS:      6.037e+09
        SOLVER ELAPSED TIME:  616ms

               CONVERGENCE CHECKS FOR EQUILIBRIUM ITERATION     2


 AVERAGE FORCE                      0.149       TIME AVG. FORCE       3.530E-02
 LARGEST SCALED RESIDUAL FORCE      3.560E-03   AT NODE       5041   DOF  3
   INSTANCE: SPIRAL-1                                                                        
  CORRESPONDING RESIDUAL FORCE      3.560E-03
 LARGEST INCREMENT OF DISP.        -1.505E-03   AT NODE        301   DOF  3
   INSTANCE: SPIRAL-1                                                                        
 LARGEST CORRECTION TO DISP.       -4.318E-06   AT NODE        319   DOF  3
   INSTANCE: SPIRAL-1                                                                        
          FORCE     EQUILIBRIUM NOT ACHIEVED WITHIN TOLERANCE.
 
	SYMMETRIC PURE THREAD-BASED DIRECT SPARSE SOLVER RUNNING ON
 	1 HOST x 1 MPI RANK PER HOST x 1 THREAD PER RANK
        NUMBER OF EQUATIONS:  90774
        NUMBER OF RHS:        1
        NUMBER OF FLOPS:      6.037e+09
        SOLVER ELAPSED TIME:  589ms

               CONVERGENCE CHECKS FOR EQUILIBRIUM ITERATION     3


 AVERAGE FORCE                      0.149       TIME AVG. FORCE       3.530E-02
 LARGEST SCALED RESIDUAL FORCE      3.900E-04   AT NODE       5041   DOF  1
   INSTANCE: SPIRAL-1                                                                        
  CORRESPONDING RESIDUAL FORCE      3.900E-04
 LARGEST INCREMENT OF DISP.        -1.505E-03   AT NODE        301   DOF  3
   INSTANCE: SPIRAL-1                                                                        
 LARGEST CORRECTION TO DISP.       -2.433E-07   AT NODE         41   DOF  3
   INSTANCE: SPIRAL-1                                                                        
          FORCE     EQUILIBRIUM NOT ACHIEVED WITHIN TOLERANCE.
 
	SYMMETRIC PURE THREAD-BASED DIRECT SPARSE SOLVER RUNNING ON
 	1 HOST x 1 MPI RANK PER HOST x 1 THREAD PER RANK
        NUMBER OF EQUATIONS:  90774
        NUMBER OF RHS:        1
        NUMBER OF FLOPS:      6.037e+09
        SOLVER ELAPSED TIME:  576ms

               CONVERGENCE CHECKS FOR EQUILIBRIUM ITERATION     4


 AVERAGE FORCE                      0.149       TIME AVG. FORCE       3.530E-02
 LARGEST SCALED RESIDUAL FORCE     -2.928E-05   AT NODE       5041   DOF  3
   INSTANCE: SPIRAL-1                                                                        
  CORRESPONDING RESIDUAL FORCE     -2.928E-05
 LARGEST INCREMENT OF DISP.        -1.505E-03   AT NODE        301   DOF  3
   INSTANCE: SPIRAL-1                                                                        
 LARGEST CORRECTION TO DISP.        3.587E-09   AT NODE        319   DOF  3
   INSTANCE: SPIRAL-1                                                                        
          THE FORCE     EQUILIBRIUM EQUATIONS HAVE CONVERGED

 ITERATION SUMMARY FOR THE INCREMENT:   4 TOTAL ITERATIONS, OF WHICH
   0 ARE SEVERE DISCONTINUITY ITERATIONS AND  4 ARE EQUILIBRIUM ITERATIONS.

 TIME INCREMENT COMPLETED  5.000E-02,  FRACTION OF STEP COMPLETED  0.364    
 STEP TIME COMPLETED       0.364    ,  TOTAL TIME COMPLETED        0.364    


  INCREMENT    17 STARTS. ATTEMPT NUMBER  1, TIME INCREMENT  5.000E-02
 
	SYMMETRIC PURE THREAD-BASED DIRECT SPARSE SOLVER RUNNING ON
 	1 HOST x 1 MPI RANK PER HOST x 1 THREAD PER RANK
        NUMBER OF EQUATIONS:  90774
        NUMBER OF RHS:        1
        NUMBER OF FLOPS:      6.037e+09
        SOLVER ELAPSED TIME:  569ms

               CONVERGENCE CHECKS FOR EQUILIBRIUM ITERATION     1


 AVERAGE FORCE                      0.181       TIME AVG. FORCE       4.387E-02
 LARGEST SCALED RESIDUAL FORCE     -5.538E-02   AT NODE        838   DOF  3
   INSTANCE: SPIRAL-1                                                                        
  CORRESPONDING RESIDUAL FORCE     -5.538E-02
 LARGEST INCREMENT OF DISP.        -1.527E-03   AT NODE        301   DOF  3
   INSTANCE: SPIRAL-1                                                                        
 LARGEST CORRECTION TO DISP.       -4.040E-05   AT NODE        292   DOF  3
   INSTANCE: SPIRAL-1                                                                        
          FORCE     EQUILIBRIUM NOT ACHIEVED WITHIN TOLERANCE.
 
	SYMMETRIC PURE THREAD-BASED DIRECT SPARSE SOLVER RUNNING ON
 	1 HOST x 1 MPI RANK PER HOST x 1 THREAD PER RANK
        NUMBER OF EQUATIONS:  90774
        NUMBER OF RHS:        1
        NUMBER OF FLOPS:      6.037e+09
        SOLVER ELAPSED TIME:  595ms

               CONVERGENCE CHECKS FOR EQUILIBRIUM ITERATION     2


 AVERAGE FORCE                      0.181       TIME AVG. FORCE       4.387E-02
 LARGEST SCALED RESIDUAL FORCE      5.538E-03   AT NODE       5041   DOF  3
   INSTANCE: SPIRAL-1                                                                        
  CORRESPONDING RESIDUAL FORCE      5.538E-03
 LARGEST INCREMENT OF DISP.        -1.531E-03   AT NODE        301   DOF  3
   INSTANCE: SPIRAL-1                                                                        
 LARGEST CORRECTION TO DISP.       -3.578E-06   AT NODE        319   DOF  3
   INSTANCE: SPIRAL-1                                                                        
          FORCE     EQUILIBRIUM NOT ACHIEVED WITHIN TOLERANCE.
 
	SYMMETRIC PURE THREAD-BASED DIRECT SPARSE SOLVER RUNNING ON
 	1 HOST x 1 MPI RANK PER HOST x 1 THREAD PER RANK
        NUMBER OF EQUATIONS:  90774
        NUMBER OF RHS:        1
        NUMBER OF FLOPS:      6.037e+09
        SOLVER ELAPSED TIME:  572ms

               CONVERGENCE CHECKS FOR EQUILIBRIUM ITERATION     3


 AVERAGE FORCE                      0.181       TIME AVG. FORCE       4.387E-02
 LARGEST SCALED RESIDUAL FORCE      6.751E-04   AT NODE       5041   DOF  1
   INSTANCE: SPIRAL-1                                                                        
  CORRESPONDING RESIDUAL FORCE      6.751E-04
 LARGEST INCREMENT OF DISP.        -1.531E-03   AT NODE        301   DOF  3
   INSTANCE: SPIRAL-1                                                                        
 LARGEST CORRECTION TO DISP.       -1.684E-07   AT NODE         41   DOF  3
   INSTANCE: SPIRAL-1                                                                        
          FORCE     EQUILIBRIUM NOT ACHIEVED WITHIN TOLERANCE.
 
	SYMMETRIC PURE THREAD-BASED DIRECT SPARSE SOLVER RUNNING ON
 	1 HOST x 1 MPI RANK PER HOST x 1 THREAD PER RANK
        NUMBER OF EQUATIONS:  90774
        NUMBER OF RHS:        1
        NUMBER OF FLOPS:      6.037e+09
        SOLVER ELAPSED TIME:  529ms

               CONVERGENCE CHECKS FOR EQUILIBRIUM ITERATION     4


 AVERAGE FORCE                      0.181       TIME AVG. FORCE       4.387E-02
 LARGEST SCALED RESIDUAL FORCE     -6.073E-05   AT NODE       5041   DOF  3
   INSTANCE: SPIRAL-1                                                                        
  CORRESPONDING RESIDUAL FORCE     -6.073E-05
 LARGEST INCREMENT OF DISP.        -1.531E-03   AT NODE        301   DOF  3
   INSTANCE: SPIRAL-1                                                                        
 LARGEST CORRECTION TO DISP.        3.312E-09   AT NODE        319   DOF  3
   INSTANCE: SPIRAL-1                                                                        
          THE FORCE     EQUILIBRIUM EQUATIONS HAVE CONVERGED

 ITERATION SUMMARY FOR THE INCREMENT:   4 TOTAL ITERATIONS, OF WHICH
   0 ARE SEVERE DISCONTINUITY ITERATIONS AND  4 ARE EQUILIBRIUM ITERATIONS.

 TIME INCREMENT COMPLETED  5.000E-02,  FRACTION OF STEP COMPLETED  0.414    
 STEP TIME COMPLETED       0.414    ,  TOTAL TIME COMPLETED        0.414    


  INCREMENT    18 STARTS. ATTEMPT NUMBER  1, TIME INCREMENT  5.000E-02
 
	SYMMETRIC PURE THREAD-BASED DIRECT SPARSE SOLVER RUNNING ON
 	1 HOST x 1 MPI RANK PER HOST x 1 THREAD PER RANK
        NUMBER OF EQUATIONS:  90774
        NUMBER OF RHS:        1
        NUMBER OF FLOPS:      6.037e+09
        SOLVER ELAPSED TIME:  498ms

               CONVERGENCE CHECKS FOR EQUILIBRIUM ITERATION     1


 AVERAGE FORCE                      0.216       TIME AVG. FORCE       5.343E-02
 LARGEST SCALED RESIDUAL FORCE     -0.104       AT NODE        838   DOF  3
   INSTANCE: SPIRAL-1                                                                        
  CORRESPONDING RESIDUAL FORCE     -0.104    
 LARGEST INCREMENT OF DISP.        -1.558E-03   AT NODE        301   DOF  3
   INSTANCE: SPIRAL-1                                                                        
 LARGEST CORRECTION TO DISP.       -4.304E-05   AT NODE        166   DOF  2
   INSTANCE: SPIRAL-1                                                                        
          FORCE     EQUILIBRIUM NOT ACHIEVED WITHIN TOLERANCE.
 
	SYMMETRIC PURE THREAD-BASED DIRECT SPARSE SOLVER RUNNING ON
 	1 HOST x 1 MPI RANK PER HOST x 1 THREAD PER RANK
        NUMBER OF EQUATIONS:  90774
        NUMBER OF RHS:        1
        NUMBER OF FLOPS:      6.037e+09
        SOLVER ELAPSED TIME:  586ms

               CONVERGENCE CHECKS FOR EQUILIBRIUM ITERATION     2


 AVERAGE FORCE                      0.216       TIME AVG. FORCE       5.344E-02
 LARGEST SCALED RESIDUAL FORCE      9.807E-03   AT NODE       5041   DOF  3
   INSTANCE: SPIRAL-1                                                                        
  CORRESPONDING RESIDUAL FORCE      9.807E-03
 LARGEST INCREMENT OF DISP.        -1.560E-03   AT NODE        301   DOF  3
   INSTANCE: SPIRAL-1                                                                        
 LARGEST CORRECTION TO DISP.       -1.794E-06   AT NODE        319   DOF  3
   INSTANCE: SPIRAL-1                                                                        
          FORCE     EQUILIBRIUM NOT ACHIEVED WITHIN TOLERANCE.
 
	SYMMETRIC PURE THREAD-BASED DIRECT SPARSE SOLVER RUNNING ON
 	1 HOST x 1 MPI RANK PER HOST x 1 THREAD PER RANK
        NUMBER OF EQUATIONS:  90774
        NUMBER OF RHS:        1
        NUMBER OF FLOPS:      6.037e+09
        SOLVER ELAPSED TIME:  551ms

               CONVERGENCE CHECKS FOR EQUILIBRIUM ITERATION     3


 AVERAGE FORCE                      0.216       TIME AVG. FORCE       5.344E-02
 LARGEST SCALED RESIDUAL FORCE      1.395E-03   AT NODE       5041   DOF  1
   INSTANCE: SPIRAL-1                                                                        
  CORRESPONDING RESIDUAL FORCE      1.395E-03
 LARGEST INCREMENT OF DISP.        -1.560E-03   AT NODE        301   DOF  3
   INSTANCE: SPIRAL-1                                                                        
 LARGEST CORRECTION TO DISP.        3.084E-07   AT NODE        301   DOF  3
   INSTANCE: SPIRAL-1                                                                        
          FORCE     EQUILIBRIUM NOT ACHIEVED WITHIN TOLERANCE.
 
	SYMMETRIC PURE THREAD-BASED DIRECT SPARSE SOLVER RUNNING ON
 	1 HOST x 1 MPI RANK PER HOST x 1 THREAD PER RANK
        NUMBER OF EQUATIONS:  90774
        NUMBER OF RHS:        1
        NUMBER OF FLOPS:      6.037e+09
        SOLVER ELAPSED TIME:  524ms

               CONVERGENCE CHECKS FOR EQUILIBRIUM ITERATION     4


 AVERAGE FORCE                      0.216       TIME AVG. FORCE       5.344E-02
 LARGEST SCALED RESIDUAL FORCE     -1.586E-04   AT NODE       5041   DOF  3
   INSTANCE: SPIRAL-1                                                                        
  CORRESPONDING RESIDUAL FORCE     -1.586E-04
 LARGEST INCREMENT OF DISP.        -1.560E-03   AT NODE        301   DOF  3
   INSTANCE: SPIRAL-1                                                                        
 LARGEST CORRECTION TO DISP.       -1.132E-08   AT NODE        301   DOF  3
   INSTANCE: SPIRAL-1                                                                        
          THE FORCE     EQUILIBRIUM EQUATIONS HAVE CONVERGED

 ITERATION SUMMARY FOR THE INCREMENT:   4 TOTAL ITERATIONS, OF WHICH
   0 ARE SEVERE DISCONTINUITY ITERATIONS AND  4 ARE EQUILIBRIUM ITERATIONS.

 TIME INCREMENT COMPLETED  5.000E-02,  FRACTION OF STEP COMPLETED  0.464    
 STEP TIME COMPLETED       0.464    ,  TOTAL TIME COMPLETED        0.464    


  INCREMENT    19 STARTS. ATTEMPT NUMBER  1, TIME INCREMENT  5.000E-02
 
	SYMMETRIC PURE THREAD-BASED DIRECT SPARSE SOLVER RUNNING ON
 	1 HOST x 1 MPI RANK PER HOST x 1 THREAD PER RANK
        NUMBER OF EQUATIONS:  90774
        NUMBER OF RHS:        1
        NUMBER OF FLOPS:      6.037e+09
        SOLVER ELAPSED TIME:  536ms

               CONVERGENCE CHECKS FOR EQUILIBRIUM ITERATION     1


 AVERAGE FORCE                      0.254       TIME AVG. FORCE       6.398E-02
 LARGEST SCALED RESIDUAL FORCE     -0.146       AT NODE        838   DOF  3
   INSTANCE: SPIRAL-1                                                                        
  CORRESPONDING RESIDUAL FORCE     -0.146    
 LARGEST INCREMENT OF DISP.        -1.580E-03   AT NODE        301   DOF  3
   INSTANCE: SPIRAL-1                                                                        
 LARGEST CORRECTION TO DISP.       -4.293E-05   AT NODE        166   DOF  2
   INSTANCE: SPIRAL-1                                                                        
          FORCE     EQUILIBRIUM NOT ACHIEVED WITHIN TOLERANCE.
 
	SYMMETRIC PURE THREAD-BASED DIRECT SPARSE SOLVER RUNNING ON
 	1 HOST x 1 MPI RANK PER HOST x 1 THREAD PER RANK
        NUMBER OF EQUATIONS:  90774
        NUMBER OF RHS:        1
        NUMBER OF FLOPS:      6.037e+09
        SOLVER ELAPSED TIME:  538ms

               CONVERGENCE CHECKS FOR EQUILIBRIUM ITERATION     2


 AVERAGE FORCE                      0.254       TIME AVG. FORCE       6.399E-02
 LARGEST SCALED RESIDUAL FORCE      1.525E-02   AT NODE       5041   DOF  3
   INSTANCE: SPIRAL-1                                                                        
  CORRESPONDING RESIDUAL FORCE      1.525E-02
 LARGEST INCREMENT OF DISP.        -1.575E-03   AT NODE        301   DOF  3
   INSTANCE: SPIRAL-1                                                                        
 LARGEST CORRECTION TO DISP.        4.820E-06   AT NODE        301   DOF  3
   INSTANCE: SPIRAL-1                                                                        
          FORCE     EQUILIBRIUM NOT ACHIEVED WITHIN TOLERANCE.
 
	SYMMETRIC PURE THREAD-BASED DIRECT SPARSE SOLVER RUNNING ON
 	1 HOST x 1 MPI RANK PER HOST x 1 THREAD PER RANK
        NUMBER OF EQUATIONS:  90774
        NUMBER OF RHS:        1
        NUMBER OF FLOPS:      6.037e+09
        SOLVER ELAPSED TIME:  585ms

               CONVERGENCE CHECKS FOR EQUILIBRIUM ITERATION     3


 AVERAGE FORCE                      0.254       TIME AVG. FORCE       6.399E-02
 LARGEST SCALED RESIDUAL FORCE      3.392E-03   AT NODE       5041   DOF  1
   INSTANCE: SPIRAL-1                                                                        
  CORRESPONDING RESIDUAL FORCE      3.392E-03
 LARGEST INCREMENT OF DISP.        -1.573E-03   AT NODE        301   DOF  3
   INSTANCE: SPIRAL-1                                                                        
 LARGEST CORRECTION TO DISP.        2.139E-06   AT NODE        300   DOF  3
   INSTANCE: SPIRAL-1                                                                        
          FORCE     EQUILIBRIUM NOT ACHIEVED WITHIN TOLERANCE.
 
	SYMMETRIC PURE THREAD-BASED DIRECT SPARSE SOLVER RUNNING ON
 	1 HOST x 1 MPI RANK PER HOST x 1 THREAD PER RANK
        NUMBER OF EQUATIONS:  90774
        NUMBER OF RHS:        1
        NUMBER OF FLOPS:      6.037e+09
        SOLVER ELAPSED TIME:  579ms

               CONVERGENCE CHECKS FOR EQUILIBRIUM ITERATION     4


 AVERAGE FORCE                      0.254       TIME AVG. FORCE       6.399E-02
 LARGEST SCALED RESIDUAL FORCE     -4.588E-04   AT NODE       5041   DOF  3
   INSTANCE: SPIRAL-1                                                                        
  CORRESPONDING RESIDUAL FORCE     -4.588E-04
 LARGEST INCREMENT OF DISP.        -1.573E-03   AT NODE        301   DOF  3
   INSTANCE: SPIRAL-1                                                                        
 LARGEST CORRECTION TO DISP.       -1.052E-07   AT NODE        319   DOF  3
   INSTANCE: SPIRAL-1                                                                        
          FORCE     EQUILIBRIUM NOT ACHIEVED WITHIN TOLERANCE.
 
	SYMMETRIC PURE THREAD-BASED DIRECT SPARSE SOLVER RUNNING ON
 	1 HOST x 1 MPI RANK PER HOST x 1 THREAD PER RANK
        NUMBER OF EQUATIONS:  90774
        NUMBER OF RHS:        1
        NUMBER OF FLOPS:      6.037e+09
        SOLVER ELAPSED TIME:  540ms

               CONVERGENCE CHECKS FOR EQUILIBRIUM ITERATION     5


 AVERAGE FORCE                      0.254       TIME AVG. FORCE       6.399E-02
 LARGEST SCALED RESIDUAL FORCE     -6.699E-05   AT NODE       5041   DOF  1
   INSTANCE: SPIRAL-1                                                                        
  CORRESPONDING RESIDUAL FORCE     -6.699E-05
 LARGEST INCREMENT OF DISP.        -1.573E-03   AT NODE        301   DOF  3
   INSTANCE: SPIRAL-1                                                                        
 LARGEST CORRECTION TO DISP.       -3.291E-08   AT NODE        319   DOF  3
   INSTANCE: SPIRAL-1                                                                        
          THE FORCE     EQUILIBRIUM EQUATIONS HAVE CONVERGED

 ITERATION SUMMARY FOR THE INCREMENT:   5 TOTAL ITERATIONS, OF WHICH
   0 ARE SEVERE DISCONTINUITY ITERATIONS AND  5 ARE EQUILIBRIUM ITERATIONS.

 TIME INCREMENT COMPLETED  5.000E-02,  FRACTION OF STEP COMPLETED  0.514    
 STEP TIME COMPLETED       0.514    ,  TOTAL TIME COMPLETED        0.514    


  INCREMENT    20 STARTS. ATTEMPT NUMBER  1, TIME INCREMENT  5.000E-02
 
	SYMMETRIC PURE THREAD-BASED DIRECT SPARSE SOLVER RUNNING ON
 	1 HOST x 1 MPI RANK PER HOST x 1 THREAD PER RANK
        NUMBER OF EQUATIONS:  90774
        NUMBER OF RHS:        1
        NUMBER OF FLOPS:      6.037e+09
        SOLVER ELAPSED TIME:  548ms

               CONVERGENCE CHECKS FOR EQUILIBRIUM ITERATION     1


 AVERAGE FORCE                      0.294       TIME AVG. FORCE       7.547E-02
 LARGEST SCALED RESIDUAL FORCE      0.143       AT NODE        984   DOF  3
   INSTANCE: SPIRAL-1                                                                        
  CORRESPONDING RESIDUAL FORCE      0.143    
 LARGEST INCREMENT OF DISP.        -1.557E-03   AT NODE        301   DOF  3
   INSTANCE: SPIRAL-1                                                                        
 LARGEST CORRECTION TO DISP.       -3.347E-05   AT NODE        301   DOF  2
   INSTANCE: SPIRAL-1                                                                        
          FORCE     EQUILIBRIUM NOT ACHIEVED WITHIN TOLERANCE.
 
	SYMMETRIC PURE THREAD-BASED DIRECT SPARSE SOLVER RUNNING ON
 	1 HOST x 1 MPI RANK PER HOST x 1 THREAD PER RANK
        NUMBER OF EQUATIONS:  90774
        NUMBER OF RHS:        1
        NUMBER OF FLOPS:      6.037e+09
        SOLVER ELAPSED TIME:  537ms

               CONVERGENCE CHECKS FOR EQUILIBRIUM ITERATION     2


 AVERAGE FORCE                      0.294       TIME AVG. FORCE       7.547E-02
 LARGEST SCALED RESIDUAL FORCE      3.697E-02   AT NODE       5041   DOF  1
   INSTANCE: SPIRAL-1                                                                        
  CORRESPONDING RESIDUAL FORCE      3.697E-02
 LARGEST INCREMENT OF DISP.        -1.541E-03   AT NODE        301   DOF  3
   INSTANCE: SPIRAL-1                                                                        
 LARGEST CORRECTION TO DISP.        1.607E-05   AT NODE        300   DOF  3
   INSTANCE: SPIRAL-1                                                                        
          FORCE     EQUILIBRIUM NOT ACHIEVED WITHIN TOLERANCE.
 
	SYMMETRIC PURE THREAD-BASED DIRECT SPARSE SOLVER RUNNING ON
 	1 HOST x 1 MPI RANK PER HOST x 1 THREAD PER RANK
        NUMBER OF EQUATIONS:  90774
        NUMBER OF RHS:        1
        NUMBER OF FLOPS:      6.037e+09
        SOLVER ELAPSED TIME:  568ms

               CONVERGENCE CHECKS FOR EQUILIBRIUM ITERATION     3


 AVERAGE FORCE                      0.294       TIME AVG. FORCE       7.547E-02
 LARGEST SCALED RESIDUAL FORCE     -4.273E-03   AT NODE       5090   DOF  1
   INSTANCE: SPIRAL-1                                                                        
  CORRESPONDING RESIDUAL FORCE     -4.273E-03
 LARGEST INCREMENT OF DISP.        -1.540E-03   AT NODE        301   DOF  3
   INSTANCE: SPIRAL-1                                                                        
 LARGEST CORRECTION TO DISP.        1.820E-06   AT NODE        319   DOF  3
   INSTANCE: SPIRAL-1                                                                        
          FORCE     EQUILIBRIUM NOT ACHIEVED WITHIN TOLERANCE.
 
	SYMMETRIC PURE THREAD-BASED DIRECT SPARSE SOLVER RUNNING ON
 	1 HOST x 1 MPI RANK PER HOST x 1 THREAD PER RANK
        NUMBER OF EQUATIONS:  90774
        NUMBER OF RHS:        1
        NUMBER OF FLOPS:      6.037e+09
        SOLVER ELAPSED TIME:  566ms

               CONVERGENCE CHECKS FOR EQUILIBRIUM ITERATION     4


 AVERAGE FORCE                      0.294       TIME AVG. FORCE       7.547E-02
 LARGEST SCALED RESIDUAL FORCE      5.910E-04   AT NODE       5090   DOF  3
   INSTANCE: SPIRAL-1                                                                        
  CORRESPONDING RESIDUAL FORCE      5.910E-04
 LARGEST INCREMENT OF DISP.        -1.540E-03   AT NODE        301   DOF  3
   INSTANCE: SPIRAL-1                                                                        
 LARGEST CORRECTION TO DISP.       -1.929E-07   AT NODE        319   DOF  3
   INSTANCE: SPIRAL-1                                                                        
          FORCE     EQUILIBRIUM NOT ACHIEVED WITHIN TOLERANCE.
 
	SYMMETRIC PURE THREAD-BASED DIRECT SPARSE SOLVER RUNNING ON
 	1 HOST x 1 MPI RANK PER HOST x 1 THREAD PER RANK
        NUMBER OF EQUATIONS:  90774
        NUMBER OF RHS:        1
        NUMBER OF FLOPS:      6.037e+09
        SOLVER ELAPSED TIME:  588ms

               CONVERGENCE CHECKS FOR EQUILIBRIUM ITERATION     5


 AVERAGE FORCE                      0.294       TIME AVG. FORCE       7.547E-02
 LARGEST SCALED RESIDUAL FORCE      8.321E-05   AT NODE       5090   DOF  1
   INSTANCE: SPIRAL-1                                                                        
  CORRESPONDING RESIDUAL FORCE      8.321E-05
 LARGEST INCREMENT OF DISP.        -1.540E-03   AT NODE        301   DOF  3
   INSTANCE: SPIRAL-1                                                                        
 LARGEST CORRECTION TO DISP.       -2.397E-08   AT NODE        319   DOF  3
   INSTANCE: SPIRAL-1                                                                        
          THE FORCE     EQUILIBRIUM EQUATIONS HAVE CONVERGED

 ITERATION SUMMARY FOR THE INCREMENT:   5 TOTAL ITERATIONS, OF WHICH
   0 ARE SEVERE DISCONTINUITY ITERATIONS AND  5 ARE EQUILIBRIUM ITERATIONS.

 TIME INCREMENT COMPLETED  5.000E-02,  FRACTION OF STEP COMPLETED  0.564    
 STEP TIME COMPLETED       0.564    ,  TOTAL TIME COMPLETED        0.564    


  INCREMENT    21 STARTS. ATTEMPT NUMBER  1, TIME INCREMENT  5.000E-02
 
	SYMMETRIC PURE THREAD-BASED DIRECT SPARSE SOLVER RUNNING ON
 	1 HOST x 1 MPI RANK PER HOST x 1 THREAD PER RANK
        NUMBER OF EQUATIONS:  90774
        NUMBER OF RHS:        1
        NUMBER OF FLOPS:      6.037e+09
        SOLVER ELAPSED TIME:  533ms

               CONVERGENCE CHECKS FOR EQUILIBRIUM ITERATION     1


 AVERAGE FORCE                      0.335       TIME AVG. FORCE       8.785E-02
 LARGEST SCALED RESIDUAL FORCE     -0.127       AT NODE        838   DOF  3
   INSTANCE: SPIRAL-1                                                                        
  CORRESPONDING RESIDUAL FORCE     -0.127    
 LARGEST INCREMENT OF DISP.        -1.500E-03   AT NODE        301   DOF  3
   INSTANCE: SPIRAL-1                                                                        
 LARGEST CORRECTION TO DISP.        4.018E-05   AT NODE        788   DOF  3
   INSTANCE: SPIRAL-1                                                                        
          FORCE     EQUILIBRIUM NOT ACHIEVED WITHIN TOLERANCE.
 
	SYMMETRIC PURE THREAD-BASED DIRECT SPARSE SOLVER RUNNING ON
 	1 HOST x 1 MPI RANK PER HOST x 1 THREAD PER RANK
        NUMBER OF EQUATIONS:  90774
        NUMBER OF RHS:        1
        NUMBER OF FLOPS:      6.037e+09
        SOLVER ELAPSED TIME:  594ms

               CONVERGENCE CHECKS FOR EQUILIBRIUM ITERATION     2


 AVERAGE FORCE                      0.335       TIME AVG. FORCE       8.785E-02
 LARGEST SCALED RESIDUAL FORCE      2.460E-02   AT NODE       5041   DOF  1
   INSTANCE: SPIRAL-1                                                                        
  CORRESPONDING RESIDUAL FORCE      2.460E-02
 LARGEST INCREMENT OF DISP.        -1.489E-03   AT NODE        301   DOF  3
   INSTANCE: SPIRAL-1                                                                        
 LARGEST CORRECTION TO DISP.        1.113E-05   AT NODE        300   DOF  3
   INSTANCE: SPIRAL-1                                                                        
          FORCE     EQUILIBRIUM NOT ACHIEVED WITHIN TOLERANCE.
 
	SYMMETRIC PURE THREAD-BASED DIRECT SPARSE SOLVER RUNNING ON
 	1 HOST x 1 MPI RANK PER HOST x 1 THREAD PER RANK
        NUMBER OF EQUATIONS:  90774
        NUMBER OF RHS:        1
        NUMBER OF FLOPS:      6.037e+09
        SOLVER ELAPSED TIME:  579ms

               CONVERGENCE CHECKS FOR EQUILIBRIUM ITERATION     3


 AVERAGE FORCE                      0.335       TIME AVG. FORCE       8.785E-02
 LARGEST SCALED RESIDUAL FORCE     -3.141E-03   AT NODE       5090   DOF  1
   INSTANCE: SPIRAL-1                                                                        
  CORRESPONDING RESIDUAL FORCE     -3.141E-03
 LARGEST INCREMENT OF DISP.        -1.487E-03   AT NODE        301   DOF  3
   INSTANCE: SPIRAL-1                                                                        
 LARGEST CORRECTION TO DISP.        2.425E-06   AT NODE        300   DOF  3
   INSTANCE: SPIRAL-1                                                                        
          FORCE     EQUILIBRIUM NOT ACHIEVED WITHIN TOLERANCE.
 
	SYMMETRIC PURE THREAD-BASED DIRECT SPARSE SOLVER RUNNING ON
 	1 HOST x 1 MPI RANK PER HOST x 1 THREAD PER RANK
        NUMBER OF EQUATIONS:  90774
        NUMBER OF RHS:        1
        NUMBER OF FLOPS:      6.037e+09
        SOLVER ELAPSED TIME:  599ms

               CONVERGENCE CHECKS FOR EQUILIBRIUM ITERATION     4


 AVERAGE FORCE                      0.335       TIME AVG. FORCE       8.785E-02
 LARGEST SCALED RESIDUAL FORCE      3.351E-04   AT NODE       5090   DOF  3
   INSTANCE: SPIRAL-1                                                                        
  CORRESPONDING RESIDUAL FORCE      3.351E-04
 LARGEST INCREMENT OF DISP.        -1.487E-03   AT NODE        301   DOF  3
   INSTANCE: SPIRAL-1                                                                        
 LARGEST CORRECTION TO DISP.       -4.777E-08   AT NODE        319   DOF  3
   INSTANCE: SPIRAL-1                                                                        
          THE FORCE     EQUILIBRIUM EQUATIONS HAVE CONVERGED

 ITERATION SUMMARY FOR THE INCREMENT:   4 TOTAL ITERATIONS, OF WHICH
   0 ARE SEVERE DISCONTINUITY ITERATIONS AND  4 ARE EQUILIBRIUM ITERATIONS.

 TIME INCREMENT COMPLETED  5.000E-02,  FRACTION OF STEP COMPLETED  0.614    
 STEP TIME COMPLETED       0.614    ,  TOTAL TIME COMPLETED        0.614    


  INCREMENT    22 STARTS. ATTEMPT NUMBER  1, TIME INCREMENT  5.000E-02
 
	SYMMETRIC PURE THREAD-BASED DIRECT SPARSE SOLVER RUNNING ON
 	1 HOST x 1 MPI RANK PER HOST x 1 THREAD PER RANK
        NUMBER OF EQUATIONS:  90774
        NUMBER OF RHS:        1
        NUMBER OF FLOPS:      6.037e+09
        SOLVER ELAPSED TIME:  587ms

               CONVERGENCE CHECKS FOR EQUILIBRIUM ITERATION     1


 AVERAGE FORCE                      0.379       TIME AVG. FORCE       0.101    
 LARGEST SCALED RESIDUAL FORCE     -0.125       AT NODE        838   DOF  3
   INSTANCE: SPIRAL-1                                                                        
  CORRESPONDING RESIDUAL FORCE     -0.125    
 LARGEST INCREMENT OF DISP.        -1.463E-03   AT NODE        301   DOF  3
   INSTANCE: SPIRAL-1                                                                        
 LARGEST CORRECTION TO DISP.       -2.738E-05   AT NODE        301   DOF  2
   INSTANCE: SPIRAL-1                                                                        
          FORCE     EQUILIBRIUM NOT ACHIEVED WITHIN TOLERANCE.
 
	SYMMETRIC PURE THREAD-BASED DIRECT SPARSE SOLVER RUNNING ON
 	1 HOST x 1 MPI RANK PER HOST x 1 THREAD PER RANK
        NUMBER OF EQUATIONS:  90774
        NUMBER OF RHS:        1
        NUMBER OF FLOPS:      6.037e+09
        SOLVER ELAPSED TIME:  587ms

               CONVERGENCE CHECKS FOR EQUILIBRIUM ITERATION     2


 AVERAGE FORCE                      0.379       TIME AVG. FORCE       0.101    
 LARGEST SCALED RESIDUAL FORCE      8.803E-03   AT NODE       5041   DOF  1
   INSTANCE: SPIRAL-1                                                                        
  CORRESPONDING RESIDUAL FORCE      8.803E-03
 LARGEST INCREMENT OF DISP.        -1.458E-03   AT NODE        301   DOF  3
   INSTANCE: SPIRAL-1                                                                        
 LARGEST CORRECTION TO DISP.        4.951E-06   AT NODE        319   DOF  3
   INSTANCE: SPIRAL-1                                                                        
          FORCE     EQUILIBRIUM NOT ACHIEVED WITHIN TOLERANCE.
 
	SYMMETRIC PURE THREAD-BASED DIRECT SPARSE SOLVER RUNNING ON
 	1 HOST x 1 MPI RANK PER HOST x 1 THREAD PER RANK
        NUMBER OF EQUATIONS:  90774
        NUMBER OF RHS:        1
        NUMBER OF FLOPS:      6.037e+09
        SOLVER ELAPSED TIME:  595ms

               CONVERGENCE CHECKS FOR EQUILIBRIUM ITERATION     3


 AVERAGE FORCE                      0.379       TIME AVG. FORCE       0.101    
 LARGEST SCALED RESIDUAL FORCE      9.169E-04   AT NODE       5041   DOF  1
   INSTANCE: SPIRAL-1                                                                        
[...]
        NUMBER OF FLOPS:      6.037e+09
        SOLVER ELAPSED TIME:  584ms

               CONVERGENCE CHECKS FOR EQUILIBRIUM ITERATION     3


 AVERAGE FORCE                      0.424       TIME AVG. FORCE       0.115    
 LARGEST SCALED RESIDUAL FORCE      3.288E-04   AT NODE       5090   DOF  3
   INSTANCE: SPIRAL-1                                                                        
  CORRESPONDING RESIDUAL FORCE      3.288E-04
 LARGEST INCREMENT OF DISP.        -1.448E-03   AT NODE        301   DOF  3
   INSTANCE: SPIRAL-1                                                                        
 LARGEST CORRECTION TO DISP.        1.533E-07   AT NODE        301   DOF  3
   INSTANCE: SPIRAL-1                                                                        
          THE FORCE     EQUILIBRIUM EQUATIONS HAVE CONVERGED

 ITERATION SUMMARY FOR THE INCREMENT:   3 TOTAL ITERATIONS, OF WHICH
   0 ARE SEVERE DISCONTINUITY ITERATIONS AND  3 ARE EQUILIBRIUM ITERATIONS.

 TIME INCREMENT COMPLETED  5.000E-02,  FRACTION OF STEP COMPLETED  0.714    
 STEP TIME COMPLETED       0.714    ,  TOTAL TIME COMPLETED        0.714    


  INCREMENT    24 STARTS. ATTEMPT NUMBER  1, TIME INCREMENT  5.000E-02
 
	SYMMETRIC PURE THREAD-BASED DIRECT SPARSE SOLVER RUNNING ON
 	1 HOST x 1 MPI RANK PER HOST x 1 THREAD PER RANK
        NUMBER OF EQUATIONS:  90774
        NUMBER OF RHS:        1
        NUMBER OF FLOPS:      6.037e+09
        SOLVER ELAPSED TIME:  582ms

               CONVERGENCE CHECKS FOR EQUILIBRIUM ITERATION     1


 AVERAGE FORCE                      0.471       TIME AVG. FORCE       0.130    
 LARGEST SCALED RESIDUAL FORCE     -4.943E-02   AT NODE        838   DOF  3
   INSTANCE: SPIRAL-1                                                                        
  CORRESPONDING RESIDUAL FORCE     -4.943E-02
 LARGEST INCREMENT OF DISP.        -1.450E-03   AT NODE        301   DOF  3
   INSTANCE: SPIRAL-1                                                                        
 LARGEST CORRECTION TO DISP.       -3.447E-05   AT NODE        166   DOF  2
   INSTANCE: SPIRAL-1                                                                        
          FORCE     EQUILIBRIUM NOT ACHIEVED WITHIN TOLERANCE.
 
	SYMMETRIC PURE THREAD-BASED DIRECT SPARSE SOLVER RUNNING ON
 	1 HOST x 1 MPI RANK PER HOST x 1 THREAD PER RANK
        NUMBER OF EQUATIONS:  90774
        NUMBER OF RHS:        1
        NUMBER OF FLOPS:      6.037e+09
        SOLVER ELAPSED TIME:  569ms

               CONVERGENCE CHECKS FOR EQUILIBRIUM ITERATION     2


 AVERAGE FORCE                      0.471       TIME AVG. FORCE       0.130    
 LARGEST SCALED RESIDUAL FORCE     -2.420E-03   AT NODE        838   DOF  3
   INSTANCE: SPIRAL-1                                                                        
  CORRESPONDING RESIDUAL FORCE     -2.420E-03
 LARGEST INCREMENT OF DISP.        -1.449E-03   AT NODE        301   DOF  3
   INSTANCE: SPIRAL-1                                                                        
 LARGEST CORRECTION TO DISP.        1.042E-06   AT NODE        319   DOF  3
   INSTANCE: SPIRAL-1                                                                        
          FORCE     EQUILIBRIUM NOT ACHIEVED WITHIN TOLERANCE.
 
	SYMMETRIC PURE THREAD-BASED DIRECT SPARSE SOLVER RUNNING ON
 	1 HOST x 1 MPI RANK PER HOST x 1 THREAD PER RANK
        NUMBER OF EQUATIONS:  90774
        NUMBER OF RHS:        1
        NUMBER OF FLOPS:      6.037e+09
        SOLVER ELAPSED TIME:  586ms

               CONVERGENCE CHECKS FOR EQUILIBRIUM ITERATION     3


 AVERAGE FORCE                      0.471       TIME AVG. FORCE       0.130    
 LARGEST SCALED RESIDUAL FORCE      1.845E-04   AT NODE       5090   DOF  3
   INSTANCE: SPIRAL-1                                                                        
  CORRESPONDING RESIDUAL FORCE      1.845E-04
 LARGEST INCREMENT OF DISP.        -1.449E-03   AT NODE        301   DOF  3
   INSTANCE: SPIRAL-1                                                                        
 LARGEST CORRECTION TO DISP.        4.286E-08   AT NODE        301   DOF  3
   INSTANCE: SPIRAL-1                                                                        
          THE FORCE     EQUILIBRIUM EQUATIONS HAVE CONVERGED

 ITERATION SUMMARY FOR THE INCREMENT:   3 TOTAL ITERATIONS, OF WHICH
   0 ARE SEVERE DISCONTINUITY ITERATIONS AND  3 ARE EQUILIBRIUM ITERATIONS.

 TIME INCREMENT COMPLETED  5.000E-02,  FRACTION OF STEP COMPLETED  0.764    
 STEP TIME COMPLETED       0.764    ,  TOTAL TIME COMPLETED        0.764    


  INCREMENT    25 STARTS. ATTEMPT NUMBER  1, TIME INCREMENT  5.000E-02
 
	SYMMETRIC PURE THREAD-BASED DIRECT SPARSE SOLVER RUNNING ON
 	1 HOST x 1 MPI RANK PER HOST x 1 THREAD PER RANK
        NUMBER OF EQUATIONS:  90774
        NUMBER OF RHS:        1
        NUMBER OF FLOPS:      6.037e+09
        SOLVER ELAPSED TIME:  602ms

               CONVERGENCE CHECKS FOR EQUILIBRIUM ITERATION     1


 AVERAGE FORCE                      0.520       TIME AVG. FORCE       0.146    
 LARGEST SCALED RESIDUAL FORCE     -3.515E-02   AT NODE        838   DOF  3
   INSTANCE: SPIRAL-1                                                                        
  CORRESPONDING RESIDUAL FORCE     -3.515E-02
 LARGEST INCREMENT OF DISP.        -1.455E-03   AT NODE        301   DOF  3
   INSTANCE: SPIRAL-1                                                                        
 LARGEST CORRECTION TO DISP.       -3.706E-05   AT NODE        166   DOF  2
   INSTANCE: SPIRAL-1                                                                        
          FORCE     EQUILIBRIUM NOT ACHIEVED WITHIN TOLERANCE.
 
	SYMMETRIC PURE THREAD-BASED DIRECT SPARSE SOLVER RUNNING ON
 	1 HOST x 1 MPI RANK PER HOST x 1 THREAD PER RANK
        NUMBER OF EQUATIONS:  90774
        NUMBER OF RHS:        1
        NUMBER OF FLOPS:      6.037e+09
        SOLVER ELAPSED TIME:  576ms

               CONVERGENCE CHECKS FOR EQUILIBRIUM ITERATION     2


 AVERAGE FORCE                      0.520       TIME AVG. FORCE       0.146    
 LARGEST SCALED RESIDUAL FORCE     -1.635E-03   AT NODE        838   DOF  3
   INSTANCE: SPIRAL-1                                                                        
  CORRESPONDING RESIDUAL FORCE     -1.635E-03
 LARGEST INCREMENT OF DISP.        -1.455E-03   AT NODE        301   DOF  3
   INSTANCE: SPIRAL-1                                                                        
 LARGEST CORRECTION TO DISP.       -6.202E-07   AT NODE       3124   DOF  3
   INSTANCE: SPIRAL-1                                                                        
          FORCE     EQUILIBRIUM NOT ACHIEVED WITHIN TOLERANCE.
 
	SYMMETRIC PURE THREAD-BASED DIRECT SPARSE SOLVER RUNNING ON
 	1 HOST x 1 MPI RANK PER HOST x 1 THREAD PER RANK
        NUMBER OF EQUATIONS:  90774
        NUMBER OF RHS:        1
        NUMBER OF FLOPS:      6.037e+09
        SOLVER ELAPSED TIME:  558ms

               CONVERGENCE CHECKS FOR EQUILIBRIUM ITERATION     3


 AVERAGE FORCE                      0.520       TIME AVG. FORCE       0.146    
 LARGEST SCALED RESIDUAL FORCE      1.012E-04   AT NODE       5090   DOF  3
   INSTANCE: SPIRAL-1                                                                        
  CORRESPONDING RESIDUAL FORCE      1.012E-04
 LARGEST INCREMENT OF DISP.        -1.455E-03   AT NODE        301   DOF  3
   INSTANCE: SPIRAL-1                                                                        
 LARGEST CORRECTION TO DISP.       -1.545E-08   AT NODE       5090   DOF  2
   INSTANCE: SPIRAL-1                                                                        
          THE FORCE     EQUILIBRIUM EQUATIONS HAVE CONVERGED

 ITERATION SUMMARY FOR THE INCREMENT:   3 TOTAL ITERATIONS, OF WHICH
   0 ARE SEVERE DISCONTINUITY ITERATIONS AND  3 ARE EQUILIBRIUM ITERATIONS.

 TIME INCREMENT COMPLETED  5.000E-02,  FRACTION OF STEP COMPLETED  0.814    
 STEP TIME COMPLETED       0.814    ,  TOTAL TIME COMPLETED        0.814    


  INCREMENT    26 STARTS. ATTEMPT NUMBER  1, TIME INCREMENT  5.000E-02
 
	SYMMETRIC PURE THREAD-BASED DIRECT SPARSE SOLVER RUNNING ON
 	1 HOST x 1 MPI RANK PER HOST x 1 THREAD PER RANK
        NUMBER OF EQUATIONS:  90774
        NUMBER OF RHS:        1
        NUMBER OF FLOPS:      6.037e+09
        SOLVER ELAPSED TIME:  542ms

               CONVERGENCE CHECKS FOR EQUILIBRIUM ITERATION     1


 AVERAGE FORCE                      0.571       TIME AVG. FORCE       0.162    
 LARGEST SCALED RESIDUAL FORCE     -2.563E-02   AT NODE        838   DOF  3
   INSTANCE: SPIRAL-1                                                                        
  CORRESPONDING RESIDUAL FORCE     -2.563E-02
 LARGEST INCREMENT OF DISP.        -1.463E-03   AT NODE        301   DOF  3
   INSTANCE: SPIRAL-1                                                                        
 LARGEST CORRECTION TO DISP.       -3.928E-05   AT NODE        166   DOF  2
   INSTANCE: SPIRAL-1                                                                        
          FORCE     EQUILIBRIUM NOT ACHIEVED WITHIN TOLERANCE.
 
	SYMMETRIC PURE THREAD-BASED DIRECT SPARSE SOLVER RUNNING ON
 	1 HOST x 1 MPI RANK PER HOST x 1 THREAD PER RANK
        NUMBER OF EQUATIONS:  90774
        NUMBER OF RHS:        1
        NUMBER OF FLOPS:      6.037e+09
        SOLVER ELAPSED TIME:  568ms

               CONVERGENCE CHECKS FOR EQUILIBRIUM ITERATION     2


 AVERAGE FORCE                      0.571       TIME AVG. FORCE       0.162    
 LARGEST SCALED RESIDUAL FORCE      1.156E-03   AT NODE       5090   DOF  3
   INSTANCE: SPIRAL-1                                                                        
  CORRESPONDING RESIDUAL FORCE      1.156E-03
 LARGEST INCREMENT OF DISP.        -1.463E-03   AT NODE        301   DOF  3
   INSTANCE: SPIRAL-1                                                                        
 LARGEST CORRECTION TO DISP.       -6.522E-07   AT NODE       3126   DOF  3
   INSTANCE: SPIRAL-1                                                                        
          FORCE     EQUILIBRIUM NOT ACHIEVED WITHIN TOLERANCE.
 
	SYMMETRIC PURE THREAD-BASED DIRECT SPARSE SOLVER RUNNING ON
 	1 HOST x 1 MPI RANK PER HOST x 1 THREAD PER RANK
        NUMBER OF EQUATIONS:  90774
        NUMBER OF RHS:        1
        NUMBER OF FLOPS:      6.037e+09
        SOLVER ELAPSED TIME:  528ms

               CONVERGENCE CHECKS FOR EQUILIBRIUM ITERATION     3


 AVERAGE FORCE                      0.571       TIME AVG. FORCE       0.162    
 LARGEST SCALED RESIDUAL FORCE      5.933E-05   AT NODE       5090   DOF  3
   INSTANCE: SPIRAL-1                                                                        
  CORRESPONDING RESIDUAL FORCE      5.933E-05
 LARGEST INCREMENT OF DISP.        -1.463E-03   AT NODE        301   DOF  3
   INSTANCE: SPIRAL-1                                                                        
 LARGEST CORRECTION TO DISP.       -1.291E-08   AT NODE       5090   DOF  2
   INSTANCE: SPIRAL-1                                                                        
          THE FORCE     EQUILIBRIUM EQUATIONS HAVE CONVERGED

 ITERATION SUMMARY FOR THE INCREMENT:   3 TOTAL ITERATIONS, OF WHICH
   0 ARE SEVERE DISCONTINUITY ITERATIONS AND  3 ARE EQUILIBRIUM ITERATIONS.

 TIME INCREMENT COMPLETED  5.000E-02,  FRACTION OF STEP COMPLETED  0.864    
 STEP TIME COMPLETED       0.864    ,  TOTAL TIME COMPLETED        0.864    


  INCREMENT    27 STARTS. ATTEMPT NUMBER  1, TIME INCREMENT  5.000E-02
 
	SYMMETRIC PURE THREAD-BASED DIRECT SPARSE SOLVER RUNNING ON
 	1 HOST x 1 MPI RANK PER HOST x 1 THREAD PER RANK
        NUMBER OF EQUATIONS:  90774
        NUMBER OF RHS:        1
        NUMBER OF FLOPS:      6.037e+09
        SOLVER ELAPSED TIME:  575ms

               CONVERGENCE CHECKS FOR EQUILIBRIUM ITERATION     1


 AVERAGE FORCE                      0.623       TIME AVG. FORCE       0.179    
 LARGEST SCALED RESIDUAL FORCE     -1.988E-02   AT NODE        838   DOF  3
   INSTANCE: SPIRAL-1                                                                        
  CORRESPONDING RESIDUAL FORCE     -1.988E-02
 LARGEST INCREMENT OF DISP.        -1.473E-03   AT NODE        301   DOF  3
   INSTANCE: SPIRAL-1                                                                        
 LARGEST CORRECTION TO DISP.       -4.136E-05   AT NODE        166   DOF  2
   INSTANCE: SPIRAL-1                                                                        
          FORCE     EQUILIBRIUM NOT ACHIEVED WITHIN TOLERANCE.
 
	SYMMETRIC PURE THREAD-BASED DIRECT SPARSE SOLVER RUNNING ON
 	1 HOST x 1 MPI RANK PER HOST x 1 THREAD PER RANK
        NUMBER OF EQUATIONS:  90774
        NUMBER OF RHS:        1
        NUMBER OF FLOPS:      6.037e+09
        SOLVER ELAPSED TIME:  610ms

               CONVERGENCE CHECKS FOR EQUILIBRIUM ITERATION     2


 AVERAGE FORCE                      0.623       TIME AVG. FORCE       0.179    
 LARGEST SCALED RESIDUAL FORCE      8.631E-04   AT NODE       5090   DOF  3
   INSTANCE: SPIRAL-1                                                                        
  CORRESPONDING RESIDUAL FORCE      8.631E-04
 LARGEST INCREMENT OF DISP.        -1.473E-03   AT NODE        301   DOF  3
   INSTANCE: SPIRAL-1                                                                        
 LARGEST CORRECTION TO DISP.       -7.127E-07   AT NODE       3126   DOF  3
   INSTANCE: SPIRAL-1                                                                        
          THE FORCE     EQUILIBRIUM EQUATIONS HAVE CONVERGED

 ITERATION SUMMARY FOR THE INCREMENT:   2 TOTAL ITERATIONS, OF WHICH
   0 ARE SEVERE DISCONTINUITY ITERATIONS AND  2 ARE EQUILIBRIUM ITERATIONS.

 TIME INCREMENT COMPLETED  5.000E-02,  FRACTION OF STEP COMPLETED  0.914    
 STEP TIME COMPLETED       0.914    ,  TOTAL TIME COMPLETED        0.914    


  INCREMENT    28 STARTS. ATTEMPT NUMBER  1, TIME INCREMENT  5.000E-02
 
	SYMMETRIC PURE THREAD-BASED DIRECT SPARSE SOLVER RUNNING ON
 	1 HOST x 1 MPI RANK PER HOST x 1 THREAD PER RANK
        NUMBER OF EQUATIONS:  90774
        NUMBER OF RHS:        1
        NUMBER OF FLOPS:      6.037e+09
        SOLVER ELAPSED TIME:  642ms

               CONVERGENCE CHECKS FOR EQUILIBRIUM ITERATION     1


 AVERAGE FORCE                      0.677       TIME AVG. FORCE       0.197    
 LARGEST SCALED RESIDUAL FORCE     -1.632E-02   AT NODE        838   DOF  3
   INSTANCE: SPIRAL-1                                                                        
  CORRESPONDING RESIDUAL FORCE     -1.632E-02
 LARGEST INCREMENT OF DISP.        -1.483E-03   AT NODE        301   DOF  3
   INSTANCE: SPIRAL-1                                                                        
 LARGEST CORRECTION TO DISP.       -4.343E-05   AT NODE        166   DOF  2
   INSTANCE: SPIRAL-1                                                                        
          FORCE     EQUILIBRIUM NOT ACHIEVED WITHIN TOLERANCE.
 
	SYMMETRIC PURE THREAD-BASED DIRECT SPARSE SOLVER RUNNING ON
 	1 HOST x 1 MPI RANK PER HOST x 1 THREAD PER RANK
        NUMBER OF EQUATIONS:  90774
        NUMBER OF RHS:        1
        NUMBER OF FLOPS:      6.037e+09
        SOLVER ELAPSED TIME:  579ms

               CONVERGENCE CHECKS FOR EQUILIBRIUM ITERATION     2


 AVERAGE FORCE                      0.677       TIME AVG. FORCE       0.197    
 LARGEST SCALED RESIDUAL FORCE      6.766E-04   AT NODE       5090   DOF  3
   INSTANCE: SPIRAL-1                                                                        
  CORRESPONDING RESIDUAL FORCE      6.766E-04
 LARGEST INCREMENT OF DISP.        -1.483E-03   AT NODE        301   DOF  3
   INSTANCE: SPIRAL-1                                                                        
 LARGEST CORRECTION TO DISP.       -7.863E-07   AT NODE      10643   DOF  3
   INSTANCE: SPIRAL-1                                                                        
          THE FORCE     EQUILIBRIUM EQUATIONS HAVE CONVERGED

 ITERATION SUMMARY FOR THE INCREMENT:   2 TOTAL ITERATIONS, OF WHICH
   0 ARE SEVERE DISCONTINUITY ITERATIONS AND  2 ARE EQUILIBRIUM ITERATIONS.

 TIME INCREMENT COMPLETED  5.000E-02,  FRACTION OF STEP COMPLETED  0.964    
 STEP TIME COMPLETED       0.964    ,  TOTAL TIME COMPLETED        0.964    


  INCREMENT    29 STARTS. ATTEMPT NUMBER  1, TIME INCREMENT  3.567E-02
 
	SYMMETRIC PURE THREAD-BASED DIRECT SPARSE SOLVER RUNNING ON
 	1 HOST x 1 MPI RANK PER HOST x 1 THREAD PER RANK
        NUMBER OF EQUATIONS:  90774
        NUMBER OF RHS:        1
        NUMBER OF FLOPS:      6.037e+09
        SOLVER ELAPSED TIME:  609ms

               CONVERGENCE CHECKS FOR EQUILIBRIUM ITERATION     1


 AVERAGE FORCE                      0.716       TIME AVG. FORCE       0.215    
 LARGEST SCALED RESIDUAL FORCE     -8.602E-03   AT NODE        838   DOF  3
   INSTANCE: SPIRAL-1                                                                        
  CORRESPONDING RESIDUAL FORCE     -8.602E-03
 LARGEST INCREMENT OF DISP.        -1.064E-03   AT NODE        301   DOF  3
   INSTANCE: SPIRAL-1                                                                        
 LARGEST CORRECTION TO DISP.       -2.785E-05   AT NODE        166   DOF  2
   INSTANCE: SPIRAL-1                                                                        
          FORCE     EQUILIBRIUM NOT ACHIEVED WITHIN TOLERANCE.
 
	SYMMETRIC PURE THREAD-BASED DIRECT SPARSE SOLVER RUNNING ON
 	1 HOST x 1 MPI RANK PER HOST x 1 THREAD PER RANK
        NUMBER OF EQUATIONS:  90774
        NUMBER OF RHS:        1
        NUMBER OF FLOPS:      6.037e+09
        SOLVER ELAPSED TIME:  580ms

               CONVERGENCE CHECKS FOR EQUILIBRIUM ITERATION     2


 AVERAGE FORCE                      0.716       TIME AVG. FORCE       0.215    
 LARGEST SCALED RESIDUAL FORCE      3.437E-04   AT NODE       5090   DOF  3
   INSTANCE: SPIRAL-1                                                                        
  CORRESPONDING RESIDUAL FORCE      3.437E-04
 LARGEST INCREMENT OF DISP.        -1.065E-03   AT NODE        301   DOF  3
   INSTANCE: SPIRAL-1                                                                        
 LARGEST CORRECTION TO DISP.       -5.316E-07   AT NODE       3128   DOF  3
   INSTANCE: SPIRAL-1                                                                        
          THE FORCE     EQUILIBRIUM EQUATIONS HAVE CONVERGED

 ITERATION SUMMARY FOR THE INCREMENT:   2 TOTAL ITERATIONS, OF WHICH
   0 ARE SEVERE DISCONTINUITY ITERATIONS AND  2 ARE EQUILIBRIUM ITERATIONS.

 TIME INCREMENT COMPLETED  3.567E-02,  FRACTION OF STEP COMPLETED   1.00    
 STEP TIME COMPLETED        1.00    ,  TOTAL TIME COMPLETED         1.00    


          THE ANALYSIS HAS BEEN COMPLETED



     ANALYSIS SUMMARY:
     TOTAL OF         29  INCREMENTS
                       0  CUTBACKS IN AUTOMATIC INCREMENTATION
                      84  ITERATIONS INCLUDING CONTACT ITERATIONS IF PRESENT
                      84  PASSES THROUGH THE EQUATION SOLVER OF WHICH 
                      84  INVOLVE MATRIX DECOMPOSITION, INCLUDING
                       0  DECOMPOSITION(S) OF THE MASS MATRIX
                       1  REORDERING OF EQUATIONS TO MINIMIZE WAVEFRONT
                       0  ADDITIONAL RESIDUAL EVALUATIONS FOR LINE SEARCHES
                       0  ADDITIONAL OPERATOR EVALUATIONS FOR LINE SEARCHES
                       4  WARNING MESSAGES DURING USER INPUT PROCESSING
                       0  WARNING MESSAGES DURING ANALYSIS
                       0  ANALYSIS WARNINGS ARE NUMERICAL PROBLEM MESSAGES
                       0  ANALYSIS WARNINGS ARE NEGATIVE EIGENVALUE MESSAGES
                       0  ERROR MESSAGES



     JOB TIME SUMMARY
       USER TIME (SEC)      =     8.73E+02
       SYSTEM TIME (SEC)    =      97.    
       TOTAL CPU TIME (SEC) =     9.70E+02
       WALLCLOCK TIME (SEC) =          153
       MEMORY PEAK (GB)     =            0
