1

   Abaqus 2025                                  Date 22-Feb-2026   Time 00:52:15
   For use by UNIVERSITAET STUTTGART under license from Dassault Systemes or its subsidiary.

                                                                                 
                                                                                 
 STEP    1     INCREMENT     1     STEP TIME    0.00    


                        S T E P       1     S T A T I C   A N A L Y S I S


                                                                                          

     AUTOMATIC TIME CONTROL WITH -
          A SUGGESTED INITIAL TIME INCREMENT OF                1.000E-03
          AND A TOTAL TIME PERIOD OF                            1.00    
          THE MINIMUM TIME INCREMENT ALLOWED IS                1.000E-05
          THE MAXIMUM TIME INCREMENT ALLOWED IS                5.000E-02

     LINEAR EQUATION SOLVER TYPE         DIRECT SPARSE

 CONVERGENCE TOLERANCE PARAMETERS FOR FORCE    
     CRITERION FOR RESIDUAL FORCE     FOR A NONLINEAR PROBLEM          5.000E-03
     CRITERION FOR DISP.    CORRECTION IN A NONLINEAR PROBLEM          1.000E-02
     INITIAL VALUE OF TIME AVERAGE FORCE                               1.000E-02
     AVERAGE FORCE     IS TIME AVERAGE FORCE    
     ALTERNATE CRIT. FOR RESIDUAL FORCE     FOR A NONLINEAR PROBLEM    2.000E-02
     CRITERION FOR ZERO FORCE     RELATIVE TO TIME AVRG. FORCE         1.000E-05
     CRITERION FOR RESIDUAL FORCE     WHEN THERE IS ZERO FLUX          1.000E-05
     CRITERION FOR DISP.    CORRECTION WHEN THERE IS ZERO FLUX         1.000E-03
     CRITERION FOR RESIDUAL FORCE     FOR A LINEAR INCREMENT           1.000E-08
     FIELD CONVERSION RATIO                                             1.00    
     CRITERION FOR ZERO FORCE     REL. TO TIME AVRG. MAX. FORCE        1.000E-05
     CRITERION FOR ZERO DISP.    RELATIVE TO CHARACTERISTIC LENGTH     1.000E-08

     VOLUMETRIC STRAIN COMPATIBILITY TOLERANCE FOR HYBRID SOLIDS       1.000E-05
     AXIAL STRAIN COMPATIBILITY TOLERANCE FOR HYBRID BEAMS             1.000E-05
     TRANS. SHEAR STRAIN COMPATIBILITY TOLERANCE FOR HYBRID BEAMS      1.000E-05
     SOFT CONTACT CONSTRAINT COMPATIBILITY TOLERANCE FOR P>P0          5.000E-03
     SOFT CONTACT CONSTRAINT COMPATIBILITY TOLERANCE FOR P=0.0         0.100    
     CONTACT FORCE ERROR TOLERANCE FOR CONVERT SDI=YES                 1.00    
     DISPLACEMENT COMPATIBILITY TOLERANCE FOR DCOUP ELEMENTS           1.000E-05
     ROTATION COMPATIBILITY TOLERANCE FOR DCOUP ELEMENTS               1.000E-05

 EQUILIBRIUM WILL BE CHECKED FOR SEVERE DISCONTINUITY ITERATIONS

 TIME INCREMENTATION CONTROL PARAMETERS:
     FIRST EQUILIBRIUM ITERATION FOR CONSECUTIVE DIVERGENCE CHECK              4
     EQUILIBRIUM ITERATION AT WHICH LOG. CONVERGENCE RATE CHECK BEGINS         8
     EQUILIBRIUM ITERATION AFTER WHICH ALTERNATE RESIDUAL IS USED              9
     MAXIMUM EQUILIBRIUM ITERATIONS ALLOWED                                   16
     EQUILIBRIUM ITERATION COUNT FOR CUT-BACK IN NEXT INCREMENT               10
     MAXIMUM EQUILIB. ITERS IN TWO INCREMENTS FOR TIME INCREMENT INCREASE      4
     MAXIMUM ITERATIONS FOR SEVERE DISCONTINUITIES                            50
     MAXIMUM ATTEMPTS ALLOWED IN AN INCREMENT                                  5
     MAXIMUM DISCON. ITERS IN TWO INCREMENTS FOR TIME INCREMENT INCREASE      50
     MAXIMUM CONTACT AUGMENTATIONS FOR *SURFACE BEHAVIOR,AUGMENTED LAGRANGE   50
     CUT-BACK FACTOR AFTER DIVERGENCE                                 0.2500    
     CUT-BACK FACTOR FOR TOO SLOW CONVERGENCE                         0.5000    
     CUT-BACK FACTOR AFTER TOO MANY EQUILIBRIUM ITERATIONS            0.7500    
     CUT-BACK FACTOR AFTER TOO MANY SEVERE DISCONTINUITY ITERATIONS   0.2500    
     CUT-BACK FACTOR AFTER PROBLEMS IN ELEMENT ASSEMBLY               0.2500    
     INCREASE FACTOR AFTER TWO INCREMENTS THAT CONVERGE QUICKLY        1.500    
     MAX. TIME INCREMENT INCREASE FACTOR ALLOWED                       1.500    
     MAX. TIME INCREMENT INCREASE FACTOR ALLOWED (DYNAMICS)            1.250    
     MAX. TIME INCREMENT INCREASE FACTOR ALLOWED (DIFFUSION)           2.000    
     MINIMUM TIME INCREMENT RATIO FOR EXTRAPOLATION TO OCCUR          0.1000    
     MAX. RATIO OF TIME INCREMENT TO STABILITY LIMIT                   1.000    
     FRACTION OF STABILITY LIMIT FOR NEW TIME INCREMENT               0.9500    
     TIME INCREMENT INCREASE FACTOR BEFORE A TIME POINT                1.000    
     GLOBAL STABILIZATION CONTROL IS NOT USED

          PRINT OF INCREMENT NUMBER, TIME, ETC., EVERY    1  INCREMENTS

     THE MAXIMUM NUMBER OF INCREMENTS IN THIS STEP IS                     100

          LARGE DISPLACEMENT THEORY WILL BE USED

     LINEAR EXTRAPOLATION WILL BE USED

     CHARACTERISTIC ELEMENT LENGTH     8.268E-04

     DETAILS REGARDING ACTUAL SOLUTION WAVEFRONT REQUESTED

     DETAILED OUTPUT OF DIAGNOSTICS TO DATABASE REQUESTED

     PRINT OF INCREMENT NUMBER, TIME, ETC., TO THE MESSAGE FILE EVERY     1  INCREMENTS

     COLLECTING MODEL CONSTRAINT INFORMATION FOR OVERCONSTRAINT CHECKS

     COLLECTING STEP CONSTRAINT INFORMATION FOR OVERCONSTRAINT CHECKS


  INCREMENT     1 STARTS. ATTEMPT NUMBER  1, TIME INCREMENT  1.000E-03
 
	SYMMETRIC PURE THREAD-BASED DIRECT SPARSE SOLVER RUNNING ON
 	1 HOST x 1 MPI RANK PER HOST x 1 THREAD PER RANK
        NUMBER OF EQUATIONS:  90774
        NUMBER OF RHS:        1
        NUMBER OF FLOPS:      6.037e+09
        SOLVER ELAPSED TIME:  224ms

               CONVERGENCE CHECKS FOR EQUILIBRIUM ITERATION     1


 AVERAGE FORCE                      4.267E-04   TIME AVG. FORCE       4.267E-04
 LARGEST SCALED RESIDUAL FORCE      1.206E-03   AT NODE      12794   DOF  3
   INSTANCE: SPIRAL-1                                                                        
  CORRESPONDING RESIDUAL FORCE      1.206E-03
 LARGEST INCREMENT OF DISP.        -1.508E-05   AT NODE       2017   DOF  3
   INSTANCE: SPIRAL-1                                                                        
 LARGEST CORRECTION TO DISP.       -1.508E-05   AT NODE       2017   DOF  3
   INSTANCE: SPIRAL-1                                                                        
          FORCE     EQUILIBRIUM NOT ACHIEVED WITHIN TOLERANCE.
 
	SYMMETRIC PURE THREAD-BASED DIRECT SPARSE SOLVER RUNNING ON
 	1 HOST x 1 MPI RANK PER HOST x 1 THREAD PER RANK
        NUMBER OF EQUATIONS:  90774
        NUMBER OF RHS:        1
        NUMBER OF FLOPS:      6.037e+09
        SOLVER ELAPSED TIME:  240ms

               CONVERGENCE CHECKS FOR EQUILIBRIUM ITERATION     2


 AVERAGE FORCE                      3.841E-04   TIME AVG. FORCE       3.841E-04
 LARGEST SCALED RESIDUAL FORCE     -6.612E-08   AT NODE      23787   DOF  3
   INSTANCE: SPIRAL-1                                                                        
  CORRESPONDING RESIDUAL FORCE     -6.612E-08
 LARGEST INCREMENT OF DISP.        -1.508E-05   AT NODE       2017   DOF  3
   INSTANCE: SPIRAL-1                                                                        
 LARGEST CORRECTION TO DISP.       -6.963E-09   AT NODE        301   DOF  2
   INSTANCE: SPIRAL-1                                                                        
          THE FORCE     EQUILIBRIUM EQUATIONS HAVE CONVERGED

 ITERATION SUMMARY FOR THE INCREMENT:   2 TOTAL ITERATIONS, OF WHICH
   0 ARE SEVERE DISCONTINUITY ITERATIONS AND  2 ARE EQUILIBRIUM ITERATIONS.

 TIME INCREMENT COMPLETED  1.000E-03,  FRACTION OF STEP COMPLETED  1.000E-03
 STEP TIME COMPLETED       1.000E-03,  TOTAL TIME COMPLETED        1.000E-03


  INCREMENT     2 STARTS. ATTEMPT NUMBER  1, TIME INCREMENT  1.000E-03
 
	SYMMETRIC PURE THREAD-BASED DIRECT SPARSE SOLVER RUNNING ON
 	1 HOST x 1 MPI RANK PER HOST x 1 THREAD PER RANK
        NUMBER OF EQUATIONS:  90774
        NUMBER OF RHS:        1
        NUMBER OF FLOPS:      6.037e+09
        SOLVER ELAPSED TIME:  486ms

               CONVERGENCE CHECKS FOR EQUILIBRIUM ITERATION     1


 AVERAGE FORCE                      7.724E-04   TIME AVG. FORCE       5.782E-04
 LARGEST SCALED RESIDUAL FORCE     -1.328E-07   AT NODE      23787   DOF  3
   INSTANCE: SPIRAL-1                                                                        
  CORRESPONDING RESIDUAL FORCE     -1.328E-07
 LARGEST INCREMENT OF DISP.        -1.508E-05   AT NODE       2017   DOF  3
   INSTANCE: SPIRAL-1                                                                        
 LARGEST CORRECTION TO DISP.       -1.394E-08   AT NODE        301   DOF  2
   INSTANCE: SPIRAL-1                                                                        
          THE FORCE     EQUILIBRIUM EQUATIONS HAVE CONVERGED
          TIME INCREMENT MAY NOW INCREASE TO    1.500E-03

 ITERATION SUMMARY FOR THE INCREMENT:   1 TOTAL ITERATIONS, OF WHICH
   0 ARE SEVERE DISCONTINUITY ITERATIONS AND  1 ARE EQUILIBRIUM ITERATIONS.

 TIME INCREMENT COMPLETED  1.000E-03,  FRACTION OF STEP COMPLETED  2.000E-03
 STEP TIME COMPLETED       2.000E-03,  TOTAL TIME COMPLETED        2.000E-03


  INCREMENT     3 STARTS. ATTEMPT NUMBER  1, TIME INCREMENT  1.500E-03
 
	SYMMETRIC PURE THREAD-BASED DIRECT SPARSE SOLVER RUNNING ON
 	1 HOST x 1 MPI RANK PER HOST x 1 THREAD PER RANK
        NUMBER OF EQUATIONS:  90774
        NUMBER OF RHS:        1
        NUMBER OF FLOPS:      6.037e+09
        SOLVER ELAPSED TIME:  513ms

               CONVERGENCE CHECKS FOR EQUILIBRIUM ITERATION     1


 AVERAGE FORCE                      1.351E-03   TIME AVG. FORCE       8.358E-04
 LARGEST SCALED RESIDUAL FORCE     -3.754E-07   AT NODE      23787   DOF  3
   INSTANCE: SPIRAL-1                                                                        
  CORRESPONDING RESIDUAL FORCE     -3.754E-07
 LARGEST INCREMENT OF DISP.        -2.262E-05   AT NODE       2017   DOF  3
   INSTANCE: SPIRAL-1                                                                        
 LARGEST CORRECTION TO DISP.       -2.618E-08   AT NODE        301   DOF  2
   INSTANCE: SPIRAL-1                                                                        
          THE FORCE     EQUILIBRIUM EQUATIONS HAVE CONVERGED
          TIME INCREMENT MAY NOW INCREASE TO    2.250E-03

 ITERATION SUMMARY FOR THE INCREMENT:   1 TOTAL ITERATIONS, OF WHICH
   0 ARE SEVERE DISCONTINUITY ITERATIONS AND  1 ARE EQUILIBRIUM ITERATIONS.

 TIME INCREMENT COMPLETED  1.500E-03,  FRACTION OF STEP COMPLETED  3.500E-03
 STEP TIME COMPLETED       3.500E-03,  TOTAL TIME COMPLETED        3.500E-03


  INCREMENT     4 STARTS. ATTEMPT NUMBER  1, TIME INCREMENT  2.250E-03
 
	SYMMETRIC PURE THREAD-BASED DIRECT SPARSE SOLVER RUNNING ON
 	1 HOST x 1 MPI RANK PER HOST x 1 THREAD PER RANK
        NUMBER OF EQUATIONS:  90774
        NUMBER OF RHS:        1
        NUMBER OF FLOPS:      6.037e+09
        SOLVER ELAPSED TIME:  509ms

               CONVERGENCE CHECKS FOR EQUILIBRIUM ITERATION     1


 AVERAGE FORCE                      2.219E-03   TIME AVG. FORCE       1.182E-03
 LARGEST SCALED RESIDUAL FORCE     -1.269E-06   AT NODE      23787   DOF  3
   INSTANCE: SPIRAL-1                                                                        
  CORRESPONDING RESIDUAL FORCE     -1.269E-06
 LARGEST INCREMENT OF DISP.        -3.394E-05   AT NODE       2017   DOF  3
   INSTANCE: SPIRAL-1                                                                        
 LARGEST CORRECTION TO DISP.       -5.902E-08   AT NODE        301   DOF  2
   INSTANCE: SPIRAL-1                                                                        
          THE FORCE     EQUILIBRIUM EQUATIONS HAVE CONVERGED
          TIME INCREMENT MAY NOW INCREASE TO    3.375E-03

 ITERATION SUMMARY FOR THE INCREMENT:   1 TOTAL ITERATIONS, OF WHICH
   0 ARE SEVERE DISCONTINUITY ITERATIONS AND  1 ARE EQUILIBRIUM ITERATIONS.

 TIME INCREMENT COMPLETED  2.250E-03,  FRACTION OF STEP COMPLETED  5.750E-03
 STEP TIME COMPLETED       5.750E-03,  TOTAL TIME COMPLETED        5.750E-03


  INCREMENT     5 STARTS. ATTEMPT NUMBER  1, TIME INCREMENT  3.375E-03
 
	SYMMETRIC PURE THREAD-BASED DIRECT SPARSE SOLVER RUNNING ON
 	1 HOST x 1 MPI RANK PER HOST x 1 THREAD PER RANK
        NUMBER OF EQUATIONS:  90774
        NUMBER OF RHS:        1
        NUMBER OF FLOPS:      6.037e+09
        SOLVER ELAPSED TIME:  484ms

               CONVERGENCE CHECKS FOR EQUILIBRIUM ITERATION     1


 AVERAGE FORCE                      3.521E-03   TIME AVG. FORCE       1.649E-03
 LARGEST SCALED RESIDUAL FORCE     -4.291E-06   AT NODE      23787   DOF  3
   INSTANCE: SPIRAL-1                                                                        
  CORRESPONDING RESIDUAL FORCE     -4.291E-06
 LARGEST INCREMENT OF DISP.         5.091E-05   AT NODE        218   DOF  3
   INSTANCE: SPIRAL-1                                                                        
 LARGEST CORRECTION TO DISP.       -1.331E-07   AT NODE        301   DOF  2
   INSTANCE: SPIRAL-1                                                                        
          THE FORCE     EQUILIBRIUM EQUATIONS HAVE CONVERGED
          TIME INCREMENT MAY NOW INCREASE TO    5.063E-03

 ITERATION SUMMARY FOR THE INCREMENT:   1 TOTAL ITERATIONS, OF WHICH
   0 ARE SEVERE DISCONTINUITY ITERATIONS AND  1 ARE EQUILIBRIUM ITERATIONS.

 TIME INCREMENT COMPLETED  3.375E-03,  FRACTION OF STEP COMPLETED  9.125E-03
 STEP TIME COMPLETED       9.125E-03,  TOTAL TIME COMPLETED        9.125E-03


  INCREMENT     6 STARTS. ATTEMPT NUMBER  1, TIME INCREMENT  5.063E-03
 
	SYMMETRIC PURE THREAD-BASED DIRECT SPARSE SOLVER RUNNING ON
 	1 HOST x 1 MPI RANK PER HOST x 1 THREAD PER RANK
        NUMBER OF EQUATIONS:  90774
        NUMBER OF RHS:        1
        NUMBER OF FLOPS:      6.037e+09
        SOLVER ELAPSED TIME:  510ms

               CONVERGENCE CHECKS FOR EQUILIBRIUM ITERATION     1


 AVERAGE FORCE                      5.478E-03   TIME AVG. FORCE       2.288E-03
 LARGEST SCALED RESIDUAL FORCE     -1.451E-05   AT NODE      23787   DOF  3
   INSTANCE: SPIRAL-1                                                                        
  CORRESPONDING RESIDUAL FORCE     -1.451E-05
 LARGEST INCREMENT OF DISP.         7.637E-05   AT NODE        218   DOF  3
   INSTANCE: SPIRAL-1                                                                        
 LARGEST CORRECTION TO DISP.       -3.000E-07   AT NODE        301   DOF  2
   INSTANCE: SPIRAL-1                                                                        
          FORCE     EQUILIBRIUM NOT ACHIEVED WITHIN TOLERANCE.
 
	SYMMETRIC PURE THREAD-BASED DIRECT SPARSE SOLVER RUNNING ON
 	1 HOST x 1 MPI RANK PER HOST x 1 THREAD PER RANK
        NUMBER OF EQUATIONS:  90774
        NUMBER OF RHS:        1
        NUMBER OF FLOPS:      6.037e+09
        SOLVER ELAPSED TIME:  526ms

               CONVERGENCE CHECKS FOR EQUILIBRIUM ITERATION     2


 AVERAGE FORCE                      5.478E-03   TIME AVG. FORCE       2.287E-03
 LARGEST SCALED RESIDUAL FORCE     -2.901E-08   AT NODE      23787   DOF  1
   INSTANCE: SPIRAL-1                                                                        
  CORRESPONDING RESIDUAL FORCE     -2.901E-08
 LARGEST INCREMENT OF DISP.         7.637E-05   AT NODE        218   DOF  3
   INSTANCE: SPIRAL-1                                                                        
 LARGEST CORRECTION TO DISP.        2.549E-11   AT NODE         41   DOF  3
   INSTANCE: SPIRAL-1                                                                        
          THE FORCE     EQUILIBRIUM EQUATIONS HAVE CONVERGED
          TIME INCREMENT MAY NOW INCREASE TO    7.594E-03

 ITERATION SUMMARY FOR THE INCREMENT:   2 TOTAL ITERATIONS, OF WHICH
   0 ARE SEVERE DISCONTINUITY ITERATIONS AND  2 ARE EQUILIBRIUM ITERATIONS.

 TIME INCREMENT COMPLETED  5.063E-03,  FRACTION OF STEP COMPLETED  1.419E-02
 STEP TIME COMPLETED       1.419E-02,  TOTAL TIME COMPLETED        1.419E-02


  INCREMENT     7 STARTS. ATTEMPT NUMBER  1, TIME INCREMENT  7.594E-03
 
	SYMMETRIC PURE THREAD-BASED DIRECT SPARSE SOLVER RUNNING ON
 	1 HOST x 1 MPI RANK PER HOST x 1 THREAD PER RANK
        NUMBER OF EQUATIONS:  90774
        NUMBER OF RHS:        1
        NUMBER OF FLOPS:      6.037e+09
        SOLVER ELAPSED TIME:  501ms

               CONVERGENCE CHECKS FOR EQUILIBRIUM ITERATION     1


 AVERAGE FORCE                      8.429E-03   TIME AVG. FORCE       3.165E-03
 LARGEST SCALED RESIDUAL FORCE     -4.902E-05   AT NODE      23787   DOF  3
   INSTANCE: SPIRAL-1                                                                        
  CORRESPONDING RESIDUAL FORCE     -4.902E-05
 LARGEST INCREMENT OF DISP.         1.146E-04   AT NODE        218   DOF  3
   INSTANCE: SPIRAL-1                                                                        
 LARGEST CORRECTION TO DISP.       -6.742E-07   AT NODE        301   DOF  2
   INSTANCE: SPIRAL-1                                                                        
          FORCE     EQUILIBRIUM NOT ACHIEVED WITHIN TOLERANCE.
 
	SYMMETRIC PURE THREAD-BASED DIRECT SPARSE SOLVER RUNNING ON
 	1 HOST x 1 MPI RANK PER HOST x 1 THREAD PER RANK
        NUMBER OF EQUATIONS:  90774
        NUMBER OF RHS:        1
        NUMBER OF FLOPS:      6.037e+09
        SOLVER ELAPSED TIME:  526ms

               CONVERGENCE CHECKS FOR EQUILIBRIUM ITERATION     2


 AVERAGE FORCE                      8.429E-03   TIME AVG. FORCE       3.165E-03
 LARGEST SCALED RESIDUAL FORCE     -1.469E-07   AT NODE      23787   DOF  1
   INSTANCE: SPIRAL-1                                                                        
  CORRESPONDING RESIDUAL FORCE     -1.469E-07
 LARGEST INCREMENT OF DISP.         1.146E-04   AT NODE        218   DOF  3
   INSTANCE: SPIRAL-1                                                                        
 LARGEST CORRECTION TO DISP.        1.050E-10   AT NODE         41   DOF  3
   INSTANCE: SPIRAL-1                                                                        
          THE FORCE     EQUILIBRIUM EQUATIONS HAVE CONVERGED
          TIME INCREMENT MAY NOW INCREASE TO    1.139E-02

 ITERATION SUMMARY FOR THE INCREMENT:   2 TOTAL ITERATIONS, OF WHICH
   0 ARE SEVERE DISCONTINUITY ITERATIONS AND  2 ARE EQUILIBRIUM ITERATIONS.

 TIME INCREMENT COMPLETED  7.594E-03,  FRACTION OF STEP COMPLETED  2.178E-02
 STEP TIME COMPLETED       2.178E-02,  TOTAL TIME COMPLETED        2.178E-02


  INCREMENT     8 STARTS. ATTEMPT NUMBER  1, TIME INCREMENT  1.139E-02
 
	SYMMETRIC PURE THREAD-BASED DIRECT SPARSE SOLVER RUNNING ON
 	1 HOST x 1 MPI RANK PER HOST x 1 THREAD PER RANK
        NUMBER OF EQUATIONS:  90774
        NUMBER OF RHS:        1
        NUMBER OF FLOPS:      6.037e+09
        SOLVER ELAPSED TIME:  495ms

               CONVERGENCE CHECKS FOR EQUILIBRIUM ITERATION     1


 AVERAGE FORCE                      1.290E-02   TIME AVG. FORCE       4.382E-03
 LARGEST SCALED RESIDUAL FORCE     -1.655E-04   AT NODE      23787   DOF  3
   INSTANCE: SPIRAL-1                                                                        
  CORRESPONDING RESIDUAL FORCE     -1.655E-04
 LARGEST INCREMENT OF DISP.         1.719E-04   AT NODE        218   DOF  3
   INSTANCE: SPIRAL-1                                                                        
 LARGEST CORRECTION TO DISP.        1.524E-06   AT NODE        166   DOF  3
   INSTANCE: SPIRAL-1                                                                        
          FORCE     EQUILIBRIUM NOT ACHIEVED WITHIN TOLERANCE.
 
	SYMMETRIC PURE THREAD-BASED DIRECT SPARSE SOLVER RUNNING ON
 	1 HOST x 1 MPI RANK PER HOST x 1 THREAD PER RANK
        NUMBER OF EQUATIONS:  90774
        NUMBER OF RHS:        1
        NUMBER OF FLOPS:      6.037e+09
        SOLVER ELAPSED TIME:  488ms

               CONVERGENCE CHECKS FOR EQUILIBRIUM ITERATION     2


 AVERAGE FORCE                      1.290E-02   TIME AVG. FORCE       4.382E-03
 LARGEST SCALED RESIDUAL FORCE     -7.424E-07   AT NODE      23787   DOF  1
   INSTANCE: SPIRAL-1                                                                        
  CORRESPONDING RESIDUAL FORCE     -7.424E-07
 LARGEST INCREMENT OF DISP.         1.719E-04   AT NODE        218   DOF  3
   INSTANCE: SPIRAL-1                                                                        
 LARGEST CORRECTION TO DISP.        3.324E-10   AT NODE         41   DOF  3
   INSTANCE: SPIRAL-1                                                                        
          THE FORCE     EQUILIBRIUM EQUATIONS HAVE CONVERGED
          TIME INCREMENT MAY NOW INCREASE TO    1.709E-02

 ITERATION SUMMARY FOR THE INCREMENT:   2 TOTAL ITERATIONS, OF WHICH
   0 ARE SEVERE DISCONTINUITY ITERATIONS AND  2 ARE EQUILIBRIUM ITERATIONS.

 TIME INCREMENT COMPLETED  1.139E-02,  FRACTION OF STEP COMPLETED  3.317E-02
 STEP TIME COMPLETED       3.317E-02,  TOTAL TIME COMPLETED        3.317E-02


  INCREMENT     9 STARTS. ATTEMPT NUMBER  1, TIME INCREMENT  1.709E-02
 
	SYMMETRIC PURE THREAD-BASED DIRECT SPARSE SOLVER RUNNING ON
 	1 HOST x 1 MPI RANK PER HOST x 1 THREAD PER RANK
        NUMBER OF EQUATIONS:  90774
        NUMBER OF RHS:        1
        NUMBER OF FLOPS:      6.037e+09
        SOLVER ELAPSED TIME:  492ms

               CONVERGENCE CHECKS FOR EQUILIBRIUM ITERATION     1


 AVERAGE FORCE                      1.973E-02   TIME AVG. FORCE       6.088E-03
 LARGEST SCALED RESIDUAL FORCE     -5.557E-04   AT NODE      23787   DOF  3
   INSTANCE: SPIRAL-1                                                                        
  CORRESPONDING RESIDUAL FORCE     -5.557E-04
 LARGEST INCREMENT OF DISP.         2.579E-04   AT NODE        218   DOF  3
   INSTANCE: SPIRAL-1                                                                        
 LARGEST CORRECTION TO DISP.       -3.377E-06   AT NODE         35   DOF  2
   INSTANCE: SPIRAL-1                                                                        
          FORCE     EQUILIBRIUM NOT ACHIEVED WITHIN TOLERANCE.
 
	SYMMETRIC PURE THREAD-BASED DIRECT SPARSE SOLVER RUNNING ON
 	1 HOST x 1 MPI RANK PER HOST x 1 THREAD PER RANK
        NUMBER OF EQUATIONS:  90774
        NUMBER OF RHS:        1
        NUMBER OF FLOPS:      6.037e+09
        SOLVER ELAPSED TIME:  492ms

               CONVERGENCE CHECKS FOR EQUILIBRIUM ITERATION     2


 AVERAGE FORCE                      1.974E-02   TIME AVG. FORCE       6.088E-03
 LARGEST SCALED RESIDUAL FORCE     -3.723E-06   AT NODE      23787   DOF  1
   INSTANCE: SPIRAL-1                                                                        
  CORRESPONDING RESIDUAL FORCE     -3.723E-06
 LARGEST INCREMENT OF DISP.         2.579E-04   AT NODE        218   DOF  3
   INSTANCE: SPIRAL-1                                                                        
 LARGEST CORRECTION TO DISP.        5.922E-10   AT NODE         41   DOF  3
   INSTANCE: SPIRAL-1                                                                        
          THE FORCE     EQUILIBRIUM EQUATIONS HAVE CONVERGED
          TIME INCREMENT MAY NOW INCREASE TO    2.563E-02

 ITERATION SUMMARY FOR THE INCREMENT:   2 TOTAL ITERATIONS, OF WHICH
   0 ARE SEVERE DISCONTINUITY ITERATIONS AND  2 ARE EQUILIBRIUM ITERATIONS.

 TIME INCREMENT COMPLETED  1.709E-02,  FRACTION OF STEP COMPLETED  5.026E-02
 STEP TIME COMPLETED       5.026E-02,  TOTAL TIME COMPLETED        5.026E-02


  INCREMENT    10 STARTS. ATTEMPT NUMBER  1, TIME INCREMENT  2.563E-02
 
	SYMMETRIC PURE THREAD-BASED DIRECT SPARSE SOLVER RUNNING ON
 	1 HOST x 1 MPI RANK PER HOST x 1 THREAD PER RANK
        NUMBER OF EQUATIONS:  90774
        NUMBER OF RHS:        1
        NUMBER OF FLOPS:      6.037e+09
        SOLVER ELAPSED TIME:  492ms

               CONVERGENCE CHECKS FOR EQUILIBRIUM ITERATION     1


 AVERAGE FORCE                      3.028E-02   TIME AVG. FORCE       8.507E-03
 LARGEST SCALED RESIDUAL FORCE     -1.842E-03   AT NODE      23787   DOF  3
   INSTANCE: SPIRAL-1                                                                        
  CORRESPONDING RESIDUAL FORCE     -1.842E-03
 LARGEST INCREMENT OF DISP.        -3.871E-04   AT NODE        117   DOF  3
   INSTANCE: SPIRAL-1                                                                        
 LARGEST CORRECTION TO DISP.       -7.629E-06   AT NODE         35   DOF  2
   INSTANCE: SPIRAL-1                                                                        
          FORCE     EQUILIBRIUM NOT ACHIEVED WITHIN TOLERANCE.
 
	SYMMETRIC PURE THREAD-BASED DIRECT SPARSE SOLVER RUNNING ON
 	1 HOST x 1 MPI RANK PER HOST x 1 THREAD PER RANK
        NUMBER OF EQUATIONS:  90774
        NUMBER OF RHS:        1
        NUMBER OF FLOPS:      6.037e+09
        SOLVER ELAPSED TIME:  521ms

               CONVERGENCE CHECKS FOR EQUILIBRIUM ITERATION     2


 AVERAGE FORCE                      3.029E-02   TIME AVG. FORCE       8.508E-03
 LARGEST SCALED RESIDUAL FORCE     -1.833E-05   AT NODE      23787   DOF  1
   INSTANCE: SPIRAL-1                                                                        
  CORRESPONDING RESIDUAL FORCE     -1.833E-05
 LARGEST INCREMENT OF DISP.        -3.871E-04   AT NODE        117   DOF  3
   INSTANCE: SPIRAL-1                                                                        
 LARGEST CORRECTION TO DISP.       -2.557E-09   AT NODE        219   DOF  2
   INSTANCE: SPIRAL-1                                                                        
          THE FORCE     EQUILIBRIUM EQUATIONS HAVE CONVERGED
          TIME INCREMENT MAY NOW INCREASE TO    3.844E-02

 ITERATION SUMMARY FOR THE INCREMENT:   2 TOTAL ITERATIONS, OF WHICH
   0 ARE SEVERE DISCONTINUITY ITERATIONS AND  2 ARE EQUILIBRIUM ITERATIONS.

 TIME INCREMENT COMPLETED  2.563E-02,  FRACTION OF STEP COMPLETED  7.589E-02
 STEP TIME COMPLETED       7.589E-02,  TOTAL TIME COMPLETED        7.589E-02


  INCREMENT    11 STARTS. ATTEMPT NUMBER  1, TIME INCREMENT  3.844E-02
 
	SYMMETRIC PURE THREAD-BASED DIRECT SPARSE SOLVER RUNNING ON
 	1 HOST x 1 MPI RANK PER HOST x 1 THREAD PER RANK
        NUMBER OF EQUATIONS:  90774
        NUMBER OF RHS:        1
        NUMBER OF FLOPS:      6.037e+09
        SOLVER ELAPSED TIME:  494ms

               CONVERGENCE CHECKS FOR EQUILIBRIUM ITERATION     1


 AVERAGE FORCE                      4.683E-02   TIME AVG. FORCE       1.199E-02
 LARGEST SCALED RESIDUAL FORCE     -5.915E-03   AT NODE      23787   DOF  3
   INSTANCE: SPIRAL-1                                                                        
  CORRESPONDING RESIDUAL FORCE     -5.915E-03
 LARGEST INCREMENT OF DISP.        -5.811E-04   AT NODE        117   DOF  3
   INSTANCE: SPIRAL-1                                                                        
 LARGEST CORRECTION TO DISP.       -1.725E-05   AT NODE        166   DOF  2
   INSTANCE: SPIRAL-1                                                                        
          FORCE     EQUILIBRIUM NOT ACHIEVED WITHIN TOLERANCE.
 
	SYMMETRIC PURE THREAD-BASED DIRECT SPARSE SOLVER RUNNING ON
 	1 HOST x 1 MPI RANK PER HOST x 1 THREAD PER RANK
        NUMBER OF EQUATIONS:  90774
        NUMBER OF RHS:        1
        NUMBER OF FLOPS:      6.037e+09
        SOLVER ELAPSED TIME:  490ms

               CONVERGENCE CHECKS FOR EQUILIBRIUM ITERATION     2


 AVERAGE FORCE                      4.685E-02   TIME AVG. FORCE       1.199E-02
 LARGEST SCALED RESIDUAL FORCE     -8.641E-05   AT NODE      23787   DOF  1
   INSTANCE: SPIRAL-1                                                                        
  CORRESPONDING RESIDUAL FORCE     -8.641E-05
 LARGEST INCREMENT OF DISP.        -5.811E-04   AT NODE        117   DOF  3
   INSTANCE: SPIRAL-1                                                                        
 LARGEST CORRECTION TO DISP.        1.756E-08   AT NODE        137   DOF  2
   INSTANCE: SPIRAL-1                                                                        
          FORCE     EQUILIBRIUM NOT ACHIEVED WITHIN TOLERANCE.
 
	SYMMETRIC PURE THREAD-BASED DIRECT SPARSE SOLVER RUNNING ON
 	1 HOST x 1 MPI RANK PER HOST x 1 THREAD PER RANK
        NUMBER OF EQUATIONS:  90774
        NUMBER OF RHS:        1
        NUMBER OF FLOPS:      6.037e+09
        SOLVER ELAPSED TIME:  493ms

               CONVERGENCE CHECKS FOR EQUILIBRIUM ITERATION     3


 AVERAGE FORCE                      4.685E-02   TIME AVG. FORCE       1.199E-02
 LARGEST SCALED RESIDUAL FORCE      6.358E-07   AT NODE      23787   DOF  3
   INSTANCE: SPIRAL-1                                                                        
  CORRESPONDING RESIDUAL FORCE      6.358E-07
 LARGEST INCREMENT OF DISP.        -5.811E-04   AT NODE        117   DOF  3
   INSTANCE: SPIRAL-1                                                                        
 LARGEST CORRECTION TO DISP.       -2.425E-10   AT NODE        219   DOF  3
   INSTANCE: SPIRAL-1                                                                        
          THE FORCE     EQUILIBRIUM EQUATIONS HAVE CONVERGED
          TIME INCREMENT MAY NOW INCREASE TO    5.000E-02

 ITERATION SUMMARY FOR THE INCREMENT:   3 TOTAL ITERATIONS, OF WHICH
   0 ARE SEVERE DISCONTINUITY ITERATIONS AND  3 ARE EQUILIBRIUM ITERATIONS.

 TIME INCREMENT COMPLETED  3.844E-02,  FRACTION OF STEP COMPLETED  0.114    
 STEP TIME COMPLETED       0.114    ,  TOTAL TIME COMPLETED        0.114    


  INCREMENT    12 STARTS. ATTEMPT NUMBER  1, TIME INCREMENT  5.000E-02
 
	SYMMETRIC PURE THREAD-BASED DIRECT SPARSE SOLVER RUNNING ON
 	1 HOST x 1 MPI RANK PER HOST x 1 THREAD PER RANK
        NUMBER OF EQUATIONS:  90774
        NUMBER OF RHS:        1
        NUMBER OF FLOPS:      6.037e+09
        SOLVER ELAPSED TIME:  489ms

               CONVERGENCE CHECKS FOR EQUILIBRIUM ITERATION     1


 AVERAGE FORCE                      6.971E-02   TIME AVG. FORCE       1.680E-02
 LARGEST SCALED RESIDUAL FORCE     -1.230E-02   AT NODE      23787   DOF  3
   INSTANCE: SPIRAL-1                                                                        
  CORRESPONDING RESIDUAL FORCE     -1.230E-02
 LARGEST INCREMENT OF DISP.        -7.567E-04   AT NODE        117   DOF  3
   INSTANCE: SPIRAL-1                                                                        
 LARGEST CORRECTION TO DISP.       -3.124E-05   AT NODE        166   DOF  2
   INSTANCE: SPIRAL-1                                                                        
          FORCE     EQUILIBRIUM NOT ACHIEVED WITHIN TOLERANCE.
 
	SYMMETRIC PURE THREAD-BASED DIRECT SPARSE SOLVER RUNNING ON
 	1 HOST x 1 MPI RANK PER HOST x 1 THREAD PER RANK
        NUMBER OF EQUATIONS:  90774
        NUMBER OF RHS:        1
        NUMBER OF FLOPS:      6.037e+09
        SOLVER ELAPSED TIME:  519ms

               CONVERGENCE CHECKS FOR EQUILIBRIUM ITERATION     2


 AVERAGE FORCE                      6.976E-02   TIME AVG. FORCE       1.681E-02
 LARGEST SCALED RESIDUAL FORCE     -2.245E-04   AT NODE      23787   DOF  1
   INSTANCE: SPIRAL-1                                                                        
  CORRESPONDING RESIDUAL FORCE     -2.245E-04
 LARGEST INCREMENT OF DISP.        -7.566E-04   AT NODE        117   DOF  3
   INSTANCE: SPIRAL-1                                                                        
 LARGEST CORRECTION TO DISP.        7.383E-08   AT NODE        137   DOF  2
   INSTANCE: SPIRAL-1                                                                        
          FORCE     EQUILIBRIUM NOT ACHIEVED WITHIN TOLERANCE.
 
	SYMMETRIC PURE THREAD-BASED DIRECT SPARSE SOLVER RUNNING ON
 	1 HOST x 1 MPI RANK PER HOST x 1 THREAD PER RANK
        NUMBER OF EQUATIONS:  90774
        NUMBER OF RHS:        1
        NUMBER OF FLOPS:      6.037e+09
        SOLVER ELAPSED TIME:  519ms

               CONVERGENCE CHECKS FOR EQUILIBRIUM ITERATION     3


 AVERAGE FORCE                      6.976E-02   TIME AVG. FORCE       1.681E-02
 LARGEST SCALED RESIDUAL FORCE      3.605E-06   AT NODE       2725   DOF  3
   INSTANCE: SPIRAL-1                                                                        
  CORRESPONDING RESIDUAL FORCE      3.605E-06
 LARGEST INCREMENT OF DISP.        -7.566E-04   AT NODE        117   DOF  3
   INSTANCE: SPIRAL-1                                                                        
 LARGEST CORRECTION TO DISP.       -1.023E-09   AT NODE        219   DOF  3
   INSTANCE: SPIRAL-1                                                                        
          THE FORCE     EQUILIBRIUM EQUATIONS HAVE CONVERGED

 ITERATION SUMMARY FOR THE INCREMENT:   3 TOTAL ITERATIONS, OF WHICH
   0 ARE SEVERE DISCONTINUITY ITERATIONS AND  3 ARE EQUILIBRIUM ITERATIONS.

 TIME INCREMENT COMPLETED  5.000E-02,  FRACTION OF STEP COMPLETED  0.164    
 STEP TIME COMPLETED       0.164    ,  TOTAL TIME COMPLETED        0.164    


  INCREMENT    13 STARTS. ATTEMPT NUMBER  1, TIME INCREMENT  5.000E-02
 
	SYMMETRIC PURE THREAD-BASED DIRECT SPARSE SOLVER RUNNING ON
 	1 HOST x 1 MPI RANK PER HOST x 1 THREAD PER RANK
        NUMBER OF EQUATIONS:  90774
        NUMBER OF RHS:        1
        NUMBER OF FLOPS:      6.037e+09
        SOLVER ELAPSED TIME:  525ms

               CONVERGENCE CHECKS FOR EQUILIBRIUM ITERATION     1


 AVERAGE FORCE                      9.421E-02   TIME AVG. FORCE       2.276E-02
 LARGEST SCALED RESIDUAL FORCE     -1.133E-02   AT NODE      23787   DOF  3
   INSTANCE: SPIRAL-1                                                                        
  CORRESPONDING RESIDUAL FORCE     -1.133E-02
 LARGEST INCREMENT OF DISP.        -7.575E-04   AT NODE        117   DOF  3
   INSTANCE: SPIRAL-1                                                                        
 LARGEST CORRECTION TO DISP.       -3.575E-05   AT NODE        166   DOF  2
   INSTANCE: SPIRAL-1                                                                        
          FORCE     EQUILIBRIUM NOT ACHIEVED WITHIN TOLERANCE.
 
	SYMMETRIC PURE THREAD-BASED DIRECT SPARSE SOLVER RUNNING ON
 	1 HOST x 1 MPI RANK PER HOST x 1 THREAD PER RANK
        NUMBER OF EQUATIONS:  90774
        NUMBER OF RHS:        1
        NUMBER OF FLOPS:      6.037e+09
        SOLVER ELAPSED TIME:  520ms

               CONVERGENCE CHECKS FOR EQUILIBRIUM ITERATION     2


 AVERAGE FORCE                      9.428E-02   TIME AVG. FORCE       2.277E-02
 LARGEST SCALED RESIDUAL FORCE      1.984E-04   AT NODE      10742   DOF  1
   INSTANCE: SPIRAL-1                                                                        
  CORRESPONDING RESIDUAL FORCE      1.984E-04
 LARGEST INCREMENT OF DISP.        -7.574E-04   AT NODE        117   DOF  3
   INSTANCE: SPIRAL-1                                                                        
 LARGEST CORRECTION TO DISP.        1.149E-07   AT NODE        137   DOF  2
   INSTANCE: SPIRAL-1                                                                        
          FORCE     EQUILIBRIUM NOT ACHIEVED WITHIN TOLERANCE.
 
	SYMMETRIC PURE THREAD-BASED DIRECT SPARSE SOLVER RUNNING ON
 	1 HOST x 1 MPI RANK PER HOST x 1 THREAD PER RANK
        NUMBER OF EQUATIONS:  90774
        NUMBER OF RHS:        1
        NUMBER OF FLOPS:      6.037e+09
        SOLVER ELAPSED TIME:  498ms

               CONVERGENCE CHECKS FOR EQUILIBRIUM ITERATION     3


 AVERAGE FORCE                      9.427E-02   TIME AVG. FORCE       2.277E-02
 LARGEST SCALED RESIDUAL FORCE      5.997E-06   AT NODE       2725   DOF  3
   INSTANCE: SPIRAL-1                                                                        
  CORRESPONDING RESIDUAL FORCE      5.997E-06
 LARGEST INCREMENT OF DISP.        -7.574E-04   AT NODE        117   DOF  3
   INSTANCE: SPIRAL-1                                                                        
 LARGEST CORRECTION TO DISP.       -1.476E-09   AT NODE        219   DOF  3
   INSTANCE: SPIRAL-1                                                                        
          THE FORCE     EQUILIBRIUM EQUATIONS HAVE CONVERGED

 ITERATION SUMMARY FOR THE INCREMENT:   3 TOTAL ITERATIONS, OF WHICH
   0 ARE SEVERE DISCONTINUITY ITERATIONS AND  3 ARE EQUILIBRIUM ITERATIONS.

 TIME INCREMENT COMPLETED  5.000E-02,  FRACTION OF STEP COMPLETED  0.214    
 STEP TIME COMPLETED       0.214    ,  TOTAL TIME COMPLETED        0.214    


  INCREMENT    14 STARTS. ATTEMPT NUMBER  1, TIME INCREMENT  5.000E-02
 
	SYMMETRIC PURE THREAD-BASED DIRECT SPARSE SOLVER RUNNING ON
 	1 HOST x 1 MPI RANK PER HOST x 1 THREAD PER RANK
        NUMBER OF EQUATIONS:  90774
        NUMBER OF RHS:        1
        NUMBER OF FLOPS:      6.037e+09
        SOLVER ELAPSED TIME:  479ms

               CONVERGENCE CHECKS FOR EQUILIBRIUM ITERATION     1


 AVERAGE FORCE                      0.120       TIME AVG. FORCE       2.974E-02
 LARGEST SCALED RESIDUAL FORCE     -8.727E-03   AT NODE      22342   DOF  1
   INSTANCE: SPIRAL-1                                                                        
  CORRESPONDING RESIDUAL FORCE     -8.727E-03
 LARGEST INCREMENT OF DISP.        -7.580E-04   AT NODE        117   DOF  3
   INSTANCE: SPIRAL-1                                                                        
 LARGEST CORRECTION TO DISP.       -3.623E-05   AT NODE        166   DOF  2
   INSTANCE: SPIRAL-1                                                                        
          FORCE     EQUILIBRIUM NOT ACHIEVED WITHIN TOLERANCE.
 
	SYMMETRIC PURE THREAD-BASED DIRECT SPARSE SOLVER RUNNING ON
 	1 HOST x 1 MPI RANK PER HOST x 1 THREAD PER RANK
        NUMBER OF EQUATIONS:  90774
        NUMBER OF RHS:        1
        NUMBER OF FLOPS:      6.037e+09
        SOLVER ELAPSED TIME:  480ms

               CONVERGENCE CHECKS FOR EQUILIBRIUM ITERATION     2


 AVERAGE FORCE                      0.120       TIME AVG. FORCE       2.975E-02
 LARGEST SCALED RESIDUAL FORCE      1.688E-04   AT NODE      10742   DOF  1
   INSTANCE: SPIRAL-1                                                                        
  CORRESPONDING RESIDUAL FORCE      1.688E-04
 LARGEST INCREMENT OF DISP.        -7.580E-04   AT NODE        117   DOF  3
   INSTANCE: SPIRAL-1                                                                        
 LARGEST CORRECTION TO DISP.        1.248E-07   AT NODE        137   DOF  2
   INSTANCE: SPIRAL-1                                                                        
          FORCE     EQUILIBRIUM NOT ACHIEVED WITHIN TOLERANCE.
 
	SYMMETRIC PURE THREAD-BASED DIRECT SPARSE SOLVER RUNNING ON
 	1 HOST x 1 MPI RANK PER HOST x 1 THREAD PER RANK
        NUMBER OF EQUATIONS:  90774
        NUMBER OF RHS:        1
        NUMBER OF FLOPS:      6.037e+09
        SOLVER ELAPSED TIME:  488ms

               CONVERGENCE CHECKS FOR EQUILIBRIUM ITERATION     3


 AVERAGE FORCE                      0.120       TIME AVG. FORCE       2.975E-02
 LARGEST SCALED RESIDUAL FORCE      7.873E-06   AT NODE       2725   DOF  3
   INSTANCE: SPIRAL-1                                                                        
  CORRESPONDING RESIDUAL FORCE      7.873E-06
 LARGEST INCREMENT OF DISP.        -7.580E-04   AT NODE        117   DOF  3
   INSTANCE: SPIRAL-1                                                                        
 LARGEST CORRECTION TO DISP.       -1.827E-09   AT NODE        219   DOF  3
   INSTANCE: SPIRAL-1                                                                        
          THE FORCE     EQUILIBRIUM EQUATIONS HAVE CONVERGED

 ITERATION SUMMARY FOR THE INCREMENT:   3 TOTAL ITERATIONS, OF WHICH
   0 ARE SEVERE DISCONTINUITY ITERATIONS AND  3 ARE EQUILIBRIUM ITERATIONS.

 TIME INCREMENT COMPLETED  5.000E-02,  FRACTION OF STEP COMPLETED  0.264    
 STEP TIME COMPLETED       0.264    ,  TOTAL TIME COMPLETED        0.264    


  INCREMENT    15 STARTS. ATTEMPT NUMBER  1, TIME INCREMENT  5.000E-02
 
	SYMMETRIC PURE THREAD-BASED DIRECT SPARSE SOLVER RUNNING ON
 	1 HOST x 1 MPI RANK PER HOST x 1 THREAD PER RANK
        NUMBER OF EQUATIONS:  90774
        NUMBER OF RHS:        1
        NUMBER OF FLOPS:      6.037e+09
        SOLVER ELAPSED TIME:  489ms

               CONVERGENCE CHECKS FOR EQUILIBRIUM ITERATION     1


 AVERAGE FORCE                      0.148       TIME AVG. FORCE       3.765E-02
 LARGEST SCALED RESIDUAL FORCE     -7.491E-03   AT NODE      22342   DOF  1
   INSTANCE: SPIRAL-1                                                                        
  CORRESPONDING RESIDUAL FORCE     -7.491E-03
 LARGEST INCREMENT OF DISP.        -7.584E-04   AT NODE        117   DOF  3
   INSTANCE: SPIRAL-1                                                                        
 LARGEST CORRECTION TO DISP.       -3.679E-05   AT NODE        166   DOF  2
   INSTANCE: SPIRAL-1                                                                        
          FORCE     EQUILIBRIUM NOT ACHIEVED WITHIN TOLERANCE.
 
	SYMMETRIC PURE THREAD-BASED DIRECT SPARSE SOLVER RUNNING ON
 	1 HOST x 1 MPI RANK PER HOST x 1 THREAD PER RANK
        NUMBER OF EQUATIONS:  90774
        NUMBER OF RHS:        1
        NUMBER OF FLOPS:      6.037e+09
        SOLVER ELAPSED TIME:  489ms

               CONVERGENCE CHECKS FOR EQUILIBRIUM ITERATION     2


 AVERAGE FORCE                      0.148       TIME AVG. FORCE       3.765E-02
 LARGEST SCALED RESIDUAL FORCE      1.945E-04   AT NODE       2725   DOF  2
   INSTANCE: SPIRAL-1                                                                        
  CORRESPONDING RESIDUAL FORCE      1.945E-04
 LARGEST INCREMENT OF DISP.        -7.584E-04   AT NODE        117   DOF  3
   INSTANCE: SPIRAL-1                                                                        
 LARGEST CORRECTION TO DISP.        1.385E-07   AT NODE      10648   DOF  3
   INSTANCE: SPIRAL-1                                                                        
          FORCE     EQUILIBRIUM NOT ACHIEVED WITHIN TOLERANCE.
 
	SYMMETRIC PURE THREAD-BASED DIRECT SPARSE SOLVER RUNNING ON
 	1 HOST x 1 MPI RANK PER HOST x 1 THREAD PER RANK
        NUMBER OF EQUATIONS:  90774
        NUMBER OF RHS:        1
        NUMBER OF FLOPS:      6.037e+09
        SOLVER ELAPSED TIME:  480ms

               CONVERGENCE CHECKS FOR EQUILIBRIUM ITERATION     3


 AVERAGE FORCE                      0.148       TIME AVG. FORCE       3.765E-02
 LARGEST SCALED RESIDUAL FORCE      9.815E-06   AT NODE       2725   DOF  3
   INSTANCE: SPIRAL-1                                                                        
  CORRESPONDING RESIDUAL FORCE      9.815E-06
 LARGEST INCREMENT OF DISP.        -7.584E-04   AT NODE        117   DOF  3
   INSTANCE: SPIRAL-1                                                                        
 LARGEST CORRECTION TO DISP.       -2.406E-09   AT NODE        219   DOF  3
   INSTANCE: SPIRAL-1                                                                        
          THE FORCE     EQUILIBRIUM EQUATIONS HAVE CONVERGED

 ITERATION SUMMARY FOR THE INCREMENT:   3 TOTAL ITERATIONS, OF WHICH
   0 ARE SEVERE DISCONTINUITY ITERATIONS AND  3 ARE EQUILIBRIUM ITERATIONS.

 TIME INCREMENT COMPLETED  5.000E-02,  FRACTION OF STEP COMPLETED  0.314    
 STEP TIME COMPLETED       0.314    ,  TOTAL TIME COMPLETED        0.314    


  INCREMENT    16 STARTS. ATTEMPT NUMBER  1, TIME INCREMENT  5.000E-02
 
	SYMMETRIC PURE THREAD-BASED DIRECT SPARSE SOLVER RUNNING ON
 	1 HOST x 1 MPI RANK PER HOST x 1 THREAD PER RANK
        NUMBER OF EQUATIONS:  90774
        NUMBER OF RHS:        1
        NUMBER OF FLOPS:      6.037e+09
        SOLVER ELAPSED TIME:  517ms

               CONVERGENCE CHECKS FOR EQUILIBRIUM ITERATION     1


 AVERAGE FORCE                      0.178       TIME AVG. FORCE       4.642E-02
 LARGEST SCALED RESIDUAL FORCE     -6.279E-03   AT NODE      22342   DOF  1
   INSTANCE: SPIRAL-1                                                                        
  CORRESPONDING RESIDUAL FORCE     -6.279E-03
 LARGEST INCREMENT OF DISP.        -7.586E-04   AT NODE        117   DOF  3
   INSTANCE: SPIRAL-1                                                                        
 LARGEST CORRECTION TO DISP.       -3.748E-05   AT NODE        166   DOF  2
   INSTANCE: SPIRAL-1                                                                        
          FORCE     EQUILIBRIUM NOT ACHIEVED WITHIN TOLERANCE.
 
	SYMMETRIC PURE THREAD-BASED DIRECT SPARSE SOLVER RUNNING ON
 	1 HOST x 1 MPI RANK PER HOST x 1 THREAD PER RANK
        NUMBER OF EQUATIONS:  90774
        NUMBER OF RHS:        1
        NUMBER OF FLOPS:      6.037e+09
        SOLVER ELAPSED TIME:  515ms

               CONVERGENCE CHECKS FOR EQUILIBRIUM ITERATION     2


 AVERAGE FORCE                      0.178       TIME AVG. FORCE       4.643E-02
 LARGEST SCALED RESIDUAL FORCE      2.592E-04   AT NODE       2725   DOF  2
   INSTANCE: SPIRAL-1                                                                        
  CORRESPONDING RESIDUAL FORCE      2.592E-04
 LARGEST INCREMENT OF DISP.        -7.586E-04   AT NODE        117   DOF  3
   INSTANCE: SPIRAL-1                                                                        
 LARGEST CORRECTION TO DISP.        1.471E-07   AT NODE      10648   DOF  3
   INSTANCE: SPIRAL-1                                                                        
          FORCE     EQUILIBRIUM NOT ACHIEVED WITHIN TOLERANCE.
 
	SYMMETRIC PURE THREAD-BASED DIRECT SPARSE SOLVER RUNNING ON
 	1 HOST x 1 MPI RANK PER HOST x 1 THREAD PER RANK
        NUMBER OF EQUATIONS:  90774
        NUMBER OF RHS:        1
        NUMBER OF FLOPS:      6.037e+09
        SOLVER ELAPSED TIME:  522ms

               CONVERGENCE CHECKS FOR EQUILIBRIUM ITERATION     3


 AVERAGE FORCE                      0.178       TIME AVG. FORCE       4.643E-02
 LARGEST SCALED RESIDUAL FORCE      1.208E-05   AT NODE       2725   DOF  3
   INSTANCE: SPIRAL-1                                                                        
  CORRESPONDING RESIDUAL FORCE      1.208E-05
 LARGEST INCREMENT OF DISP.        -7.586E-04   AT NODE        117   DOF  3
   INSTANCE: SPIRAL-1                                                                        
 LARGEST CORRECTION TO DISP.       -3.357E-09   AT NODE        219   DOF  3
   INSTANCE: SPIRAL-1                                                                        
          THE FORCE     EQUILIBRIUM EQUATIONS HAVE CONVERGED

 ITERATION SUMMARY FOR THE INCREMENT:   3 TOTAL ITERATIONS, OF WHICH
   0 ARE SEVERE DISCONTINUITY ITERATIONS AND  3 ARE EQUILIBRIUM ITERATIONS.

 TIME INCREMENT COMPLETED  5.000E-02,  FRACTION OF STEP COMPLETED  0.364    
 STEP TIME COMPLETED       0.364    ,  TOTAL TIME COMPLETED        0.364    


  INCREMENT    17 STARTS. ATTEMPT NUMBER  1, TIME INCREMENT  5.000E-02
 
	SYMMETRIC PURE THREAD-BASED DIRECT SPARSE SOLVER RUNNING ON
 	1 HOST x 1 MPI RANK PER HOST x 1 THREAD PER RANK
        NUMBER OF EQUATIONS:  90774
        NUMBER OF RHS:        1
        NUMBER OF FLOPS:      6.037e+09
        SOLVER ELAPSED TIME:  497ms

               CONVERGENCE CHECKS FOR EQUILIBRIUM ITERATION     1


 AVERAGE FORCE                      0.209       TIME AVG. FORCE       5.602E-02
 LARGEST SCALED RESIDUAL FORCE     -5.789E-03   AT NODE        223   DOF  1
   INSTANCE: SPIRAL-1                                                                        
  CORRESPONDING RESIDUAL FORCE     -5.789E-03
 LARGEST INCREMENT OF DISP.        -7.589E-04   AT NODE        117   DOF  3
   INSTANCE: SPIRAL-1                                                                        
 LARGEST CORRECTION TO DISP.       -3.836E-05   AT NODE        301   DOF  2
   INSTANCE: SPIRAL-1                                                                        
          FORCE     EQUILIBRIUM NOT ACHIEVED WITHIN TOLERANCE.
 
	SYMMETRIC PURE THREAD-BASED DIRECT SPARSE SOLVER RUNNING ON
 	1 HOST x 1 MPI RANK PER HOST x 1 THREAD PER RANK
        NUMBER OF EQUATIONS:  90774
        NUMBER OF RHS:        1
        NUMBER OF FLOPS:      6.037e+09
        SOLVER ELAPSED TIME:  515ms

               CONVERGENCE CHECKS FOR EQUILIBRIUM ITERATION     2


 AVERAGE FORCE                      0.209       TIME AVG. FORCE       5.602E-02
 LARGEST SCALED RESIDUAL FORCE      3.403E-04   AT NODE       2725   DOF  2
   INSTANCE: SPIRAL-1                                                                        
  CORRESPONDING RESIDUAL FORCE      3.403E-04
 LARGEST INCREMENT OF DISP.        -7.589E-04   AT NODE        117   DOF  3
   INSTANCE: SPIRAL-1                                                                        
 LARGEST CORRECTION TO DISP.        1.473E-07   AT NODE      10648   DOF  3
   INSTANCE: SPIRAL-1                                                                        
          FORCE     EQUILIBRIUM NOT ACHIEVED WITHIN TOLERANCE.
 
	SYMMETRIC PURE THREAD-BASED DIRECT SPARSE SOLVER RUNNING ON
 	1 HOST x 1 MPI RANK PER HOST x 1 THREAD PER RANK
        NUMBER OF EQUATIONS:  90774
        NUMBER OF RHS:        1
        NUMBER OF FLOPS:      6.037e+09
        SOLVER ELAPSED TIME:  561ms

               CONVERGENCE CHECKS FOR EQUILIBRIUM ITERATION     3


 AVERAGE FORCE                      0.209       TIME AVG. FORCE       5.602E-02
 LARGEST SCALED RESIDUAL FORCE     -1.525E-05   AT NODE       8240   DOF  2
   INSTANCE: SPIRAL-1                                                                        
  CORRESPONDING RESIDUAL FORCE     -1.525E-05
 LARGEST INCREMENT OF DISP.        -7.589E-04   AT NODE        117   DOF  3
   INSTANCE: SPIRAL-1                                                                        
 LARGEST CORRECTION TO DISP.       -4.747E-09   AT NODE        219   DOF  3
   INSTANCE: SPIRAL-1                                                                        
          THE FORCE     EQUILIBRIUM EQUATIONS HAVE CONVERGED

 ITERATION SUMMARY FOR THE INCREMENT:   3 TOTAL ITERATIONS, OF WHICH
   0 ARE SEVERE DISCONTINUITY ITERATIONS AND  3 ARE EQUILIBRIUM ITERATIONS.

 TIME INCREMENT COMPLETED  5.000E-02,  FRACTION OF STEP COMPLETED  0.414    
 STEP TIME COMPLETED       0.414    ,  TOTAL TIME COMPLETED        0.414    


  INCREMENT    18 STARTS. ATTEMPT NUMBER  1, TIME INCREMENT  5.000E-02
 
	SYMMETRIC PURE THREAD-BASED DIRECT SPARSE SOLVER RUNNING ON
 	1 HOST x 1 MPI RANK PER HOST x 1 THREAD PER RANK
        NUMBER OF EQUATIONS:  90774
        NUMBER OF RHS:        1
        NUMBER OF FLOPS:      6.037e+09
        SOLVER ELAPSED TIME:  529ms

               CONVERGENCE CHECKS FOR EQUILIBRIUM ITERATION     1


 AVERAGE FORCE                      0.243       TIME AVG. FORCE       6.640E-02
 LARGEST SCALED RESIDUAL FORCE      6.994E-03   AT NODE       2109   DOF  3
   INSTANCE: SPIRAL-1                                                                        
  CORRESPONDING RESIDUAL FORCE      6.994E-03
 LARGEST INCREMENT OF DISP.        -7.591E-04   AT NODE        117   DOF  3
   INSTANCE: SPIRAL-1                                                                        
 LARGEST CORRECTION TO DISP.       -3.944E-05   AT NODE        301   DOF  2
   INSTANCE: SPIRAL-1                                                                        
          FORCE     EQUILIBRIUM NOT ACHIEVED WITHIN TOLERANCE.
 
	SYMMETRIC PURE THREAD-BASED DIRECT SPARSE SOLVER RUNNING ON
 	1 HOST x 1 MPI RANK PER HOST x 1 THREAD PER RANK
        NUMBER OF EQUATIONS:  90774
        NUMBER OF RHS:        1
        NUMBER OF FLOPS:      6.037e+09
        SOLVER ELAPSED TIME:  573ms

               CONVERGENCE CHECKS FOR EQUILIBRIUM ITERATION     2


 AVERAGE FORCE                      0.243       TIME AVG. FORCE       6.640E-02
 LARGEST SCALED RESIDUAL FORCE      4.404E-04   AT NODE       2725   DOF  2
   INSTANCE: SPIRAL-1                                                                        
  CORRESPONDING RESIDUAL FORCE      4.404E-04
 LARGEST INCREMENT OF DISP.        -7.592E-04   AT NODE        117   DOF  3
   INSTANCE: SPIRAL-1                                                                        
 LARGEST CORRECTION TO DISP.        1.413E-07   AT NODE      10648   DOF  3
   INSTANCE: SPIRAL-1                                                                        
          FORCE     EQUILIBRIUM NOT ACHIEVED WITHIN TOLERANCE.
 
	SYMMETRIC PURE THREAD-BASED DIRECT SPARSE SOLVER RUNNING ON
 	1 HOST x 1 MPI RANK PER HOST x 1 THREAD PER RANK
        NUMBER OF EQUATIONS:  90774
        NUMBER OF RHS:        1
        NUMBER OF FLOPS:      6.037e+09
        SOLVER ELAPSED TIME:  535ms

               CONVERGENCE CHECKS FOR EQUILIBRIUM ITERATION     3


 AVERAGE FORCE                      0.243       TIME AVG. FORCE       6.640E-02
 LARGEST SCALED RESIDUAL FORCE     -2.060E-05   AT NODE       8240   DOF  2
   INSTANCE: SPIRAL-1                                                                        
  CORRESPONDING RESIDUAL FORCE     -2.060E-05
 LARGEST INCREMENT OF DISP.        -7.591E-04   AT NODE        117   DOF  3
   INSTANCE: SPIRAL-1                                                                        
 LARGEST CORRECTION TO DISP.       -6.570E-09   AT NODE        219   DOF  3
   INSTANCE: SPIRAL-1                                                                        
          THE FORCE     EQUILIBRIUM EQUATIONS HAVE CONVERGED

 ITERATION SUMMARY FOR THE INCREMENT:   3 TOTAL ITERATIONS, OF WHICH
   0 ARE SEVERE DISCONTINUITY ITERATIONS AND  3 ARE EQUILIBRIUM ITERATIONS.

 TIME INCREMENT COMPLETED  5.000E-02,  FRACTION OF STEP COMPLETED  0.464    
 STEP TIME COMPLETED       0.464    ,  TOTAL TIME COMPLETED        0.464    


  INCREMENT    19 STARTS. ATTEMPT NUMBER  1, TIME INCREMENT  5.000E-02
 
	SYMMETRIC PURE THREAD-BASED DIRECT SPARSE SOLVER RUNNING ON
 	1 HOST x 1 MPI RANK PER HOST x 1 THREAD PER RANK
        NUMBER OF EQUATIONS:  90774
        NUMBER OF RHS:        1
        NUMBER OF FLOPS:      6.037e+09
        SOLVER ELAPSED TIME:  499ms

               CONVERGENCE CHECKS FOR EQUILIBRIUM ITERATION     1


 AVERAGE FORCE                      0.279       TIME AVG. FORCE       7.757E-02
 LARGEST SCALED RESIDUAL FORCE      8.814E-03   AT NODE       2109   DOF  3
   INSTANCE: SPIRAL-1                                                                        
  CORRESPONDING RESIDUAL FORCE      8.814E-03
 LARGEST INCREMENT OF DISP.        -7.594E-04   AT NODE        117   DOF  3
   INSTANCE: SPIRAL-1                                                                        
 LARGEST CORRECTION TO DISP.       -4.075E-05   AT NODE        301   DOF  2
   INSTANCE: SPIRAL-1                                                                        
          FORCE     EQUILIBRIUM NOT ACHIEVED WITHIN TOLERANCE.
 
	SYMMETRIC PURE THREAD-BASED DIRECT SPARSE SOLVER RUNNING ON
 	1 HOST x 1 MPI RANK PER HOST x 1 THREAD PER RANK
        NUMBER OF EQUATIONS:  90774
        NUMBER OF RHS:        1
        NUMBER OF FLOPS:      6.037e+09
        SOLVER ELAPSED TIME:  507ms

               CONVERGENCE CHECKS FOR EQUILIBRIUM ITERATION     2


 AVERAGE FORCE                      0.279       TIME AVG. FORCE       7.758E-02
 LARGEST SCALED RESIDUAL FORCE      5.598E-04   AT NODE       2725   DOF  2
   INSTANCE: SPIRAL-1                                                                        
  CORRESPONDING RESIDUAL FORCE      5.598E-04
 LARGEST INCREMENT OF DISP.        -7.594E-04   AT NODE        117   DOF  3
   INSTANCE: SPIRAL-1                                                                        
 LARGEST CORRECTION TO DISP.        1.308E-07   AT NODE      10648   DOF  3
   INSTANCE: SPIRAL-1                                                                        
          FORCE     EQUILIBRIUM NOT ACHIEVED WITHIN TOLERANCE.
 
	SYMMETRIC PURE THREAD-BASED DIRECT SPARSE SOLVER RUNNING ON
 	1 HOST x 1 MPI RANK PER HOST x 1 THREAD PER RANK
        NUMBER OF EQUATIONS:  90774
        NUMBER OF RHS:        1
        NUMBER OF FLOPS:      6.037e+09
        SOLVER ELAPSED TIME:  508ms

               CONVERGENCE CHECKS FOR EQUILIBRIUM ITERATION     3


 AVERAGE FORCE                      0.279       TIME AVG. FORCE       7.758E-02
 LARGEST SCALED RESIDUAL FORCE     -2.989E-05   AT NODE        223   DOF  2
   INSTANCE: SPIRAL-1                                                                        
  CORRESPONDING RESIDUAL FORCE     -2.989E-05
 LARGEST INCREMENT OF DISP.        -7.594E-04   AT NODE        117   DOF  3
   INSTANCE: SPIRAL-1                                                                        
 LARGEST CORRECTION TO DISP.       -8.750E-09   AT NODE        219   DOF  3
   INSTANCE: SPIRAL-1                                                                        
          THE FORCE     EQUILIBRIUM EQUATIONS HAVE CONVERGED

 ITERATION SUMMARY FOR THE INCREMENT:   3 TOTAL ITERATIONS, OF WHICH
   0 ARE SEVERE DISCONTINUITY ITERATIONS AND  3 ARE EQUILIBRIUM ITERATIONS.

 TIME INCREMENT COMPLETED  5.000E-02,  FRACTION OF STEP COMPLETED  0.514    
 STEP TIME COMPLETED       0.514    ,  TOTAL TIME COMPLETED        0.514    


  INCREMENT    20 STARTS. ATTEMPT NUMBER  1, TIME INCREMENT  5.000E-02
 
	SYMMETRIC PURE THREAD-BASED DIRECT SPARSE SOLVER RUNNING ON
 	1 HOST x 1 MPI RANK PER HOST x 1 THREAD PER RANK
        NUMBER OF EQUATIONS:  90774
        NUMBER OF RHS:        1
        NUMBER OF FLOPS:      6.037e+09
        SOLVER ELAPSED TIME:  510ms

               CONVERGENCE CHECKS FOR EQUILIBRIUM ITERATION     1


 AVERAGE FORCE                      0.317       TIME AVG. FORCE       8.954E-02
 LARGEST SCALED RESIDUAL FORCE      1.100E-02   AT NODE       2109   DOF  3
   INSTANCE: SPIRAL-1                                                                        
  CORRESPONDING RESIDUAL FORCE      1.100E-02
 LARGEST INCREMENT OF DISP.        -7.596E-04   AT NODE        117   DOF  3
   INSTANCE: SPIRAL-1                                                                        
 LARGEST CORRECTION TO DISP.       -4.232E-05   AT NODE        301   DOF  2
   INSTANCE: SPIRAL-1                                                                        
          FORCE     EQUILIBRIUM NOT ACHIEVED WITHIN TOLERANCE.
 
	SYMMETRIC PURE THREAD-BASED DIRECT SPARSE SOLVER RUNNING ON
 	1 HOST x 1 MPI RANK PER HOST x 1 THREAD PER RANK
        NUMBER OF EQUATIONS:  90774
        NUMBER OF RHS:        1
        NUMBER OF FLOPS:      6.037e+09
        SOLVER ELAPSED TIME:  509ms

               CONVERGENCE CHECKS FOR EQUILIBRIUM ITERATION     2


 AVERAGE FORCE                      0.317       TIME AVG. FORCE       8.955E-02
 LARGEST SCALED RESIDUAL FORCE      6.969E-04   AT NODE       2725   DOF  2
   INSTANCE: SPIRAL-1                                                                        
  CORRESPONDING RESIDUAL FORCE      6.969E-04
 LARGEST INCREMENT OF DISP.        -7.597E-04   AT NODE        117   DOF  3
   INSTANCE: SPIRAL-1                                                                        
 LARGEST CORRECTION TO DISP.        1.359E-07   AT NODE        137   DOF  2
   INSTANCE: SPIRAL-1                                                                        
          FORCE     EQUILIBRIUM NOT ACHIEVED WITHIN TOLERANCE.
 
	SYMMETRIC PURE THREAD-BASED DIRECT SPARSE SOLVER RUNNING ON
 	1 HOST x 1 MPI RANK PER HOST x 1 THREAD PER RANK
        NUMBER OF EQUATIONS:  90774
        NUMBER OF RHS:        1
        NUMBER OF FLOPS:      6.037e+09
        SOLVER ELAPSED TIME:  518ms

               CONVERGENCE CHECKS FOR EQUILIBRIUM ITERATION     3


 AVERAGE FORCE                      0.317       TIME AVG. FORCE       8.955E-02
 LARGEST SCALED RESIDUAL FORCE     -4.575E-05   AT NODE        223   DOF  2
   INSTANCE: SPIRAL-1                                                                        
  CORRESPONDING RESIDUAL FORCE     -4.575E-05
 LARGEST INCREMENT OF DISP.        -7.597E-04   AT NODE        117   DOF  3
   INSTANCE: SPIRAL-1                                                                        
 LARGEST CORRECTION TO DISP.       -1.115E-08   AT NODE        219   DOF  3
   INSTANCE: SPIRAL-1                                                                        
          THE FORCE     EQUILIBRIUM EQUATIONS HAVE CONVERGED

 ITERATION SUMMARY FOR THE INCREMENT:   3 TOTAL ITERATIONS, OF WHICH
   0 ARE SEVERE DISCONTINUITY ITERATIONS AND  3 ARE EQUILIBRIUM ITERATIONS.

 TIME INCREMENT COMPLETED  5.000E-02,  FRACTION OF STEP COMPLETED  0.564    
 STEP TIME COMPLETED       0.564    ,  TOTAL TIME COMPLETED        0.564    


  INCREMENT    21 STARTS. ATTEMPT NUMBER  1, TIME INCREMENT  5.000E-02
 
	SYMMETRIC PURE THREAD-BASED DIRECT SPARSE SOLVER RUNNING ON
 	1 HOST x 1 MPI RANK PER HOST x 1 THREAD PER RANK
        NUMBER OF EQUATIONS:  90774
        NUMBER OF RHS:        1
        NUMBER OF FLOPS:      6.037e+09
        SOLVER ELAPSED TIME:  501ms

               CONVERGENCE CHECKS FOR EQUILIBRIUM ITERATION     1


 AVERAGE FORCE                      0.358       TIME AVG. FORCE       0.102    
 LARGEST SCALED RESIDUAL FORCE      1.364E-02   AT NODE       2109   DOF  3
   INSTANCE: SPIRAL-1                                                                        
  CORRESPONDING RESIDUAL FORCE      1.364E-02
 LARGEST INCREMENT OF DISP.        -7.599E-04   AT NODE        117   DOF  3
   INSTANCE: SPIRAL-1                                                                        
 LARGEST CORRECTION TO DISP.       -4.417E-05   AT NODE        301   DOF  2
   INSTANCE: SPIRAL-1                                                                        
          FORCE     EQUILIBRIUM NOT ACHIEVED WITHIN TOLERANCE.
 
	SYMMETRIC PURE THREAD-BASED DIRECT SPARSE SOLVER RUNNING ON
 	1 HOST x 1 MPI RANK PER HOST x 1 THREAD PER RANK
        NUMBER OF EQUATIONS:  90774
        NUMBER OF RHS:        1
        NUMBER OF FLOPS:      6.037e+09
        SOLVER ELAPSED TIME:  493ms

               CONVERGENCE CHECKS FOR EQUILIBRIUM ITERATION     2


 AVERAGE FORCE                      0.358       TIME AVG. FORCE       0.102    
 LARGEST SCALED RESIDUAL FORCE      8.481E-04   AT NODE       2725   DOF  2
   INSTANCE: SPIRAL-1                                                                        
  CORRESPONDING RESIDUAL FORCE      8.481E-04
 LARGEST INCREMENT OF DISP.        -7.600E-04   AT NODE        117   DOF  3
   INSTANCE: SPIRAL-1                                                                        
 LARGEST CORRECTION TO DISP.        1.536E-07   AT NODE        137   DOF  2
   INSTANCE: SPIRAL-1                                                                        
          FORCE     EQUILIBRIUM NOT ACHIEVED WITHIN TOLERANCE.
 
	SYMMETRIC PURE THREAD-BASED DIRECT SPARSE SOLVER RUNNING ON
 	1 HOST x 1 MPI RANK PER HOST x 1 THREAD PER RANK
        NUMBER OF EQUATIONS:  90774
        NUMBER OF RHS:        1
        NUMBER OF FLOPS:      6.037e+09
        SOLVER ELAPSED TIME:  493ms

               CONVERGENCE CHECKS FOR EQUILIBRIUM ITERATION     3


 AVERAGE FORCE                      0.358       TIME AVG. FORCE       0.102    
 LARGEST SCALED RESIDUAL FORCE     -6.767E-05   AT NODE        223   DOF  2
   INSTANCE: SPIRAL-1                                                                        
  CORRESPONDING RESIDUAL FORCE     -6.767E-05
 LARGEST INCREMENT OF DISP.        -7.600E-04   AT NODE        117   DOF  3
   INSTANCE: SPIRAL-1                                                                        
 LARGEST CORRECTION TO DISP.       -1.358E-08   AT NODE        219   DOF  3
   INSTANCE: SPIRAL-1                                                                        
          THE FORCE     EQUILIBRIUM EQUATIONS HAVE CONVERGED

 ITERATION SUMMARY FOR THE INCREMENT:   3 TOTAL ITERATIONS, OF WHICH
   0 ARE SEVERE DISCONTINUITY ITERATIONS AND  3 ARE EQUILIBRIUM ITERATIONS.

 TIME INCREMENT COMPLETED  5.000E-02,  FRACTION OF STEP COMPLETED  0.614    
 STEP TIME COMPLETED       0.614    ,  TOTAL TIME COMPLETED        0.614    


  INCREMENT    22 STARTS. ATTEMPT NUMBER  1, TIME INCREMENT  5.000E-02
 
	SYMMETRIC PURE THREAD-BASED DIRECT SPARSE SOLVER RUNNING ON
 	1 HOST x 1 MPI RANK PER HOST x 1 THREAD PER RANK
        NUMBER OF EQUATIONS:  90774
        NUMBER OF RHS:        1
        NUMBER OF FLOPS:      6.037e+09
        SOLVER ELAPSED TIME:  488ms

               CONVERGENCE CHECKS FOR EQUILIBRIUM ITERATION     1


 AVERAGE FORCE                      0.400       TIME AVG. FORCE       0.116    
 LARGEST SCALED RESIDUAL FORCE      1.683E-02   AT NODE       2109   DOF  3
   INSTANCE: SPIRAL-1                                                                        
  CORRESPONDING RESIDUAL FORCE      1.683E-02
 LARGEST INCREMENT OF DISP.        -7.603E-04   AT NODE        117   DOF  3
   INSTANCE: SPIRAL-1                                                                        
 LARGEST CORRECTION TO DISP.       -4.635E-05   AT NODE        301   DOF  2
   INSTANCE: SPIRAL-1                                                                        
          FORCE     EQUILIBRIUM NOT ACHIEVED WITHIN TOLERANCE.
 
	SYMMETRIC PURE THREAD-BASED DIRECT SPARSE SOLVER RUNNING ON
 	1 HOST x 1 MPI RANK PER HOST x 1 THREAD PER RANK
        NUMBER OF EQUATIONS:  90774
        NUMBER OF RHS:        1
        NUMBER OF FLOPS:      6.037e+09
        SOLVER ELAPSED TIME:  513ms

               CONVERGENCE CHECKS FOR EQUILIBRIUM ITERATION     2


 AVERAGE FORCE                      0.401       TIME AVG. FORCE       0.116    
 LARGEST SCALED RESIDUAL FORCE      1.013E-03   AT NODE        223   DOF  3
   INSTANCE: SPIRAL-1                                                                        
  CORRESPONDING RESIDUAL FORCE      1.013E-03
 LARGEST INCREMENT OF DISP.        -7.604E-04   AT NODE        117   DOF  3
   INSTANCE: SPIRAL-1                                                                        
 LARGEST CORRECTION TO DISP.        1.754E-07   AT NODE        137   DOF  2
   INSTANCE: SPIRAL-1                                                                        
          FORCE     EQUILIBRIUM NOT ACHIEVED WITHIN TOLERANCE.
 
	SYMMETRIC PURE THREAD-BASED DIRECT SPARSE SOLVER RUNNING ON
 	1 HOST x 1 MPI RANK PER HOST x 1 THREAD PER RANK
        NUMBER OF EQUATIONS:  90774
        NUMBER OF RHS:        1
        NUMBER OF FLOPS:      6.037e+09
        SOLVER ELAPSED TIME:  497ms

               CONVERGENCE CHECKS FOR EQUILIBRIUM ITERATION     3


 AVERAGE FORCE                      0.401       TIME AVG. FORCE       0.116    
 LARGEST SCALED RESIDUAL FORCE     -9.676E-05   AT NODE        223   DOF  2
   INSTANCE: SPIRAL-1                                                                        
  CORRESPONDING RESIDUAL FORCE     -9.676E-05
 LARGEST INCREMENT OF DISP.        -7.604E-04   AT NODE        117   DOF  3
   INSTANCE: SPIRAL-1                                                                        
 LARGEST CORRECTION TO DISP.       -1.577E-08   AT NODE        219   DOF  3
   INSTANCE: SPIRAL-1                                                                        
          THE FORCE     EQUILIBRIUM EQUATIONS HAVE CONVERGED

 ITERATION SUMMARY FOR THE INCREMENT:   3 TOTAL ITERATIONS, OF WHICH
   0 ARE SEVERE DISCONTINUITY ITERATIONS AND  3 ARE EQUILIBRIUM ITERATIONS.

 TIME INCREMENT COMPLETED  5.000E-02,  FRACTION OF STEP COMPLETED  0.664    
 STEP TIME COMPLETED       0.664    ,  TOTAL TIME COMPLETED        0.664    


  INCREMENT    23 STARTS. ATTEMPT NUMBER  1, TIME INCREMENT  5.000E-02
 
	SYMMETRIC PURE THREAD-BASED DIRECT SPARSE SOLVER RUNNING ON
 	1 HOST x 1 MPI RANK PER HOST x 1 THREAD PER RANK
        NUMBER OF EQUATIONS:  90774
        NUMBER OF RHS:        1
        NUMBER OF FLOPS:      6.037e+09
        SOLVER ELAPSED TIME:  497ms

               CONVERGENCE CHECKS FOR EQUILIBRIUM ITERATION     1


 AVERAGE FORCE                      0.445       TIME AVG. FORCE       0.130    
 LARGEST SCALED RESIDUAL FORCE      2.057E-02   AT NODE       2109   DOF  3
   INSTANCE: SPIRAL-1                                                                        
  CORRESPONDING RESIDUAL FORCE      2.057E-02
 LARGEST INCREMENT OF DISP.        -7.607E-04   AT NODE        117   DOF  3
   INSTANCE: SPIRAL-1                                                                        
 LARGEST CORRECTION TO DISP.       -4.888E-05   AT NODE        301   DOF  2
   INSTANCE: SPIRAL-1                                                                        
          FORCE     EQUILIBRIUM NOT ACHIEVED WITHIN TOLERANCE.
 
	SYMMETRIC PURE THREAD-BASED DIRECT SPARSE SOLVER RUNNING ON
 	1 HOST x 1 MPI RANK PER HOST x 1 THREAD PER RANK
        NUMBER OF EQUATIONS:  90774
        NUMBER OF RHS:        1
        NUMBER OF FLOPS:      6.037e+09
        SOLVER ELAPSED TIME:  494ms

               CONVERGENCE CHECKS FOR EQUILIBRIUM ITERATION     2


 AVERAGE FORCE                      0.446       TIME AVG. FORCE       0.130    
 LARGEST SCALED RESIDUAL FORCE      1.375E-03   AT NODE        223   DOF  3
   INSTANCE: SPIRAL-1                                                                        
  CORRESPONDING RESIDUAL FORCE      1.375E-03
 LARGEST INCREMENT OF DISP.        -7.608E-04   AT NODE        117   DOF  3
   INSTANCE: SPIRAL-1                                                                        
 LARGEST CORRECTION TO DISP.        1.988E-07   AT NODE        137   DOF  2
   INSTANCE: SPIRAL-1                                                                        
          FORCE     EQUILIBRIUM NOT ACHIEVED WITHIN TOLERANCE.
 
	SYMMETRIC PURE THREAD-BASED DIRECT SPARSE SOLVER RUNNING ON
 	1 HOST x 1 MPI RANK PER HOST x 1 THREAD PER RANK
        NUMBER OF EQUATIONS:  90774
        NUMBER OF RHS:        1
        NUMBER OF FLOPS:      6.037e+09
        SOLVER ELAPSED TIME:  538ms

               CONVERGENCE CHECKS FOR EQUILIBRIUM ITERATION     3


 AVERAGE FORCE                      0.446       TIME AVG. FORCE       0.130    
 LARGEST SCALED RESIDUAL FORCE     -1.342E-04   AT NODE        223   DOF  2
   INSTANCE: SPIRAL-1                                                                        
  CORRESPONDING RESIDUAL FORCE     -1.342E-04
 LARGEST INCREMENT OF DISP.        -7.608E-04   AT NODE        117   DOF  3
   INSTANCE: SPIRAL-1                                                                        
 LARGEST CORRECTION TO DISP.       -1.740E-08   AT NODE        219   DOF  3
   INSTANCE: SPIRAL-1                                                                        
          THE FORCE     EQUILIBRIUM EQUATIONS HAVE CONVERGED

 ITERATION SUMMARY FOR THE INCREMENT:   3 TOTAL ITERATIONS, OF WHICH
   0 ARE SEVERE DISCONTINUITY ITERATIONS AND  3 ARE EQUILIBRIUM ITERATIONS.

 TIME INCREMENT COMPLETED  5.000E-02,  FRACTION OF STEP COMPLETED  0.714    
 STEP TIME COMPLETED       0.714    ,  TOTAL TIME COMPLETED        0.714    


  INCREMENT    24 STARTS. ATTEMPT NUMBER  1, TIME INCREMENT  5.000E-02
 
	SYMMETRIC PURE THREAD-BASED DIRECT SPARSE SOLVER RUNNING ON
 	1 HOST x 1 MPI RANK PER HOST x 1 THREAD PER RANK
        NUMBER OF EQUATIONS:  90774
        NUMBER OF RHS:        1
        NUMBER OF FLOPS:      6.037e+09
        SOLVER ELAPSED TIME:  509ms

               CONVERGENCE CHECKS FOR EQUILIBRIUM ITERATION     1


 AVERAGE FORCE                      0.493       TIME AVG. FORCE       0.145    
 LARGEST SCALED RESIDUAL FORCE      2.480E-02   AT NODE       2109   DOF  3
   INSTANCE: SPIRAL-1                                                                        
  CORRESPONDING RESIDUAL FORCE      2.480E-02
 LARGEST INCREMENT OF DISP.        -7.612E-04   AT NODE        117   DOF  3
   INSTANCE: SPIRAL-1                                                                        
 LARGEST CORRECTION TO DISP.       -5.183E-05   AT NODE        301   DOF  2
   INSTANCE: SPIRAL-1                                                                        
          FORCE     EQUILIBRIUM NOT ACHIEVED WITHIN TOLERANCE.
 
	SYMMETRIC PURE THREAD-BASED DIRECT SPARSE SOLVER RUNNING ON
 	1 HOST x 1 MPI RANK PER HOST x 1 THREAD PER RANK
        NUMBER OF EQUATIONS:  90774
        NUMBER OF RHS:        1
        NUMBER OF FLOPS:      6.037e+09
        SOLVER ELAPSED TIME:  509ms

               CONVERGENCE CHECKS FOR EQUILIBRIUM ITERATION     2


 AVERAGE FORCE                      0.493       TIME AVG. FORCE       0.145    
 LARGEST SCALED RESIDUAL FORCE      1.826E-03   AT NODE        223   DOF  3
   INSTANCE: SPIRAL-1                                                                        
  CORRESPONDING RESIDUAL FORCE      1.826E-03
 LARGEST INCREMENT OF DISP.        -7.613E-04   AT NODE        117   DOF  3
   INSTANCE: SPIRAL-1                                                                        
 LARGEST CORRECTION TO DISP.        2.201E-07   AT NODE        137   DOF  2
   INSTANCE: SPIRAL-1                                                                        
          FORCE     EQUILIBRIUM NOT ACHIEVED WITHIN TOLERANCE.
 
	SYMMETRIC PURE THREAD-BASED DIRECT SPARSE SOLVER RUNNING ON
 	1 HOST x 1 MPI RANK PER HOST x 1 THREAD PER RANK
        NUMBER OF EQUATIONS:  90774
        NUMBER OF RHS:        1
        NUMBER OF FLOPS:      6.037e+09
        SOLVER ELAPSED TIME:  494ms

               CONVERGENCE CHECKS FOR EQUILIBRIUM ITERATION     3


 AVERAGE FORCE                      0.493       TIME AVG. FORCE       0.145    
 LARGEST SCALED RESIDUAL FORCE      1.939E-04   AT NODE        219   DOF  3
   INSTANCE: SPIRAL-1                                                                        
  CORRESPONDING RESIDUAL FORCE      1.939E-04
 LARGEST INCREMENT OF DISP.        -7.613E-04   AT NODE        117   DOF  3
   INSTANCE: SPIRAL-1                                                                        
 LARGEST CORRECTION TO DISP.        1.910E-08   AT NODE       8203   DOF  3
   INSTANCE: SPIRAL-1                                                                        
          THE FORCE     EQUILIBRIUM EQUATIONS HAVE CONVERGED

 ITERATION SUMMARY FOR THE INCREMENT:   3 TOTAL ITERATIONS, OF WHICH
   0 ARE SEVERE DISCONTINUITY ITERATIONS AND  3 ARE EQUILIBRIUM ITERATIONS.

 TIME INCREMENT COMPLETED  5.000E-02,  FRACTION OF STEP COMPLETED  0.764    
 STEP TIME COMPLETED       0.764    ,  TOTAL TIME COMPLETED        0.764    


  INCREMENT    25 STARTS. ATTEMPT NUMBER  1, TIME INCREMENT  5.000E-02
 
	SYMMETRIC PURE THREAD-BASED DIRECT SPARSE SOLVER RUNNING ON
 	1 HOST x 1 MPI RANK PER HOST x 1 THREAD PER RANK
        NUMBER OF EQUATIONS:  90774
        NUMBER OF RHS:        1
        NUMBER OF FLOPS:      6.037e+09
        SOLVER ELAPSED TIME:  510ms

               CONVERGENCE CHECKS FOR EQUILIBRIUM ITERATION     1


 AVERAGE FORCE                      0.542       TIME AVG. FORCE       0.161    
 LARGEST SCALED RESIDUAL FORCE      2.940E-02   AT NODE       2109   DOF  3
   INSTANCE: SPIRAL-1                                                                        
  CORRESPONDING RESIDUAL FORCE      2.940E-02
 LARGEST INCREMENT OF DISP.        -7.618E-04   AT NODE        117   DOF  3
   INSTANCE: SPIRAL-1                                                                        
 LARGEST CORRECTION TO DISP.       -5.523E-05   AT NODE        301   DOF  2
   INSTANCE: SPIRAL-1                                                                        
          FORCE     EQUILIBRIUM NOT ACHIEVED WITHIN TOLERANCE.
 
	SYMMETRIC PURE THREAD-BASED DIRECT SPARSE SOLVER RUNNING ON
 	1 HOST x 1 MPI RANK PER HOST x 1 THREAD PER RANK
        NUMBER OF EQUATIONS:  90774
        NUMBER OF RHS:        1
        NUMBER OF FLOPS:      6.037e+09
        SOLVER ELAPSED TIME:  521ms

               CONVERGENCE CHECKS FOR EQUILIBRIUM ITERATION     2


 AVERAGE FORCE                      0.542       TIME AVG. FORCE       0.161    
 LARGEST SCALED RESIDUAL FORCE     -2.660E-03   AT NODE       2109   DOF  3
   INSTANCE: SPIRAL-1                                                                        
  CORRESPONDING RESIDUAL FORCE     -2.660E-03
 LARGEST INCREMENT OF DISP.        -7.619E-04   AT NODE        117   DOF  3
   INSTANCE: SPIRAL-1                                                                        
 LARGEST CORRECTION TO DISP.        2.347E-07   AT NODE        137   DOF  2
   INSTANCE: SPIRAL-1                                                                        
          FORCE     EQUILIBRIUM NOT ACHIEVED WITHIN TOLERANCE.
 
	SYMMETRIC PURE THREAD-BASED DIRECT SPARSE SOLVER RUNNING ON
 	1 HOST x 1 MPI RANK PER HOST x 1 THREAD PER RANK
        NUMBER OF EQUATIONS:  90774
        NUMBER OF RHS:        1
        NUMBER OF FLOPS:      6.037e+09
        SOLVER ELAPSED TIME:  523ms

               CONVERGENCE CHECKS FOR EQUILIBRIUM ITERATION     3


 AVERAGE FORCE                      0.542       TIME AVG. FORCE       0.161    
 LARGEST SCALED RESIDUAL FORCE      3.131E-04   AT NODE        219   DOF  3
   INSTANCE: SPIRAL-1                                                                        
  CORRESPONDING RESIDUAL FORCE      3.131E-04
 LARGEST INCREMENT OF DISP.        -7.619E-04   AT NODE        117   DOF  3
   INSTANCE: SPIRAL-1                                                                        
 LARGEST CORRECTION TO DISP.       -2.423E-08   AT NODE       9015   DOF  3
   INSTANCE: SPIRAL-1                                                                        
          THE FORCE     EQUILIBRIUM EQUATIONS HAVE CONVERGED

 ITERATION SUMMARY FOR THE INCREMENT:   3 TOTAL ITERATIONS, OF WHICH
   0 ARE SEVERE DISCONTINUITY ITERATIONS AND  3 ARE EQUILIBRIUM ITERATIONS.

 TIME INCREMENT COMPLETED  5.000E-02,  FRACTION OF STEP COMPLETED  0.814    
 STEP TIME COMPLETED       0.814    ,  TOTAL TIME COMPLETED        0.814    


  INCREMENT    26 STARTS. ATTEMPT NUMBER  1, TIME INCREMENT  5.000E-02
 
	SYMMETRIC PURE THREAD-BASED DIRECT SPARSE SOLVER RUNNING ON
 	1 HOST x 1 MPI RANK PER HOST x 1 THREAD PER RANK
        NUMBER OF EQUATIONS:  90774
        NUMBER OF RHS:        1
        NUMBER OF FLOPS:      6.037e+09
        SOLVER ELAPSED TIME:  545ms

               CONVERGENCE CHECKS FOR EQUILIBRIUM ITERATION     1


 AVERAGE FORCE                      0.593       TIME AVG. FORCE       0.178    
 LARGEST SCALED RESIDUAL FORCE      3.416E-02   AT NODE       2109   DOF  3
   INSTANCE: SPIRAL-1                                                                        
  CORRESPONDING RESIDUAL FORCE      3.416E-02
 LARGEST INCREMENT OF DISP.        -7.625E-04   AT NODE        117   DOF  3
   INSTANCE: SPIRAL-1                                                                        
 LARGEST CORRECTION TO DISP.       -5.915E-05   AT NODE        301   DOF  2
   INSTANCE: SPIRAL-1                                                                        
          FORCE     EQUILIBRIUM NOT ACHIEVED WITHIN TOLERANCE.
 
	SYMMETRIC PURE THREAD-BASED DIRECT SPARSE SOLVER RUNNING ON
 	1 HOST x 1 MPI RANK PER HOST x 1 THREAD PER RANK
        NUMBER OF EQUATIONS:  90774
        NUMBER OF RHS:        1
        NUMBER OF FLOPS:      6.037e+09
        SOLVER ELAPSED TIME:  526ms

               CONVERGENCE CHECKS FOR EQUILIBRIUM ITERATION     2


 AVERAGE FORCE                      0.593       TIME AVG. FORCE       0.178    
 LARGEST SCALED RESIDUAL FORCE     -3.828E-03   AT NODE       2109   DOF  3
   INSTANCE: SPIRAL-1                                                                        
  CORRESPONDING RESIDUAL FORCE     -3.828E-03
 LARGEST INCREMENT OF DISP.        -7.626E-04   AT NODE        117   DOF  3
   INSTANCE: SPIRAL-1                                                                        
 LARGEST CORRECTION TO DISP.       -2.820E-07   AT NODE       8240   DOF  3
   INSTANCE: SPIRAL-1                                                                        
          FORCE     EQUILIBRIUM NOT ACHIEVED WITHIN TOLERANCE.
 
	SYMMETRIC PURE THREAD-BASED DIRECT SPARSE SOLVER RUNNING ON
 	1 HOST x 1 MPI RANK PER HOST x 1 THREAD PER RANK
        NUMBER OF EQUATIONS:  90774
        NUMBER OF RHS:        1
        NUMBER OF FLOPS:      6.037e+09
        SOLVER ELAPSED TIME:  534ms

               CONVERGENCE CHECKS FOR EQUILIBRIUM ITERATION     3


 AVERAGE FORCE                      0.593       TIME AVG. FORCE       0.178    
 LARGEST SCALED RESIDUAL FORCE     -5.351E-04   AT NODE       8203   DOF  3
   INSTANCE: SPIRAL-1                                                                        
  CORRESPONDING RESIDUAL FORCE     -5.351E-04
 LARGEST INCREMENT OF DISP.        -7.626E-04   AT NODE        117   DOF  3
   INSTANCE: SPIRAL-1                                                                        
 LARGEST CORRECTION TO DISP.       -3.009E-08   AT NODE       9015   DOF  3
   INSTANCE: SPIRAL-1                                                                        
          THE FORCE     EQUILIBRIUM EQUATIONS HAVE CONVERGED

 ITERATION SUMMARY FOR THE INCREMENT:   3 TOTAL ITERATIONS, OF WHICH
   0 ARE SEVERE DISCONTINUITY ITERATIONS AND  3 ARE EQUILIBRIUM ITERATIONS.

 TIME INCREMENT COMPLETED  5.000E-02,  FRACTION OF STEP COMPLETED  0.864    
 STEP TIME COMPLETED       0.864    ,  TOTAL TIME COMPLETED        0.864    


  INCREMENT    27 STARTS. ATTEMPT NUMBER  1, TIME INCREMENT  5.000E-02
 
	SYMMETRIC PURE THREAD-BASED DIRECT SPARSE SOLVER RUNNING ON
 	1 HOST x 1 MPI RANK PER HOST x 1 THREAD PER RANK
        NUMBER OF EQUATIONS:  90774
        NUMBER OF RHS:        1
        NUMBER OF FLOPS:      6.037e+09
        SOLVER ELAPSED TIME:  525ms

               CONVERGENCE CHECKS FOR EQUILIBRIUM ITERATION     1


 AVERAGE FORCE                      0.646       TIME AVG. FORCE       0.195    
 LARGEST SCALED RESIDUAL FORCE     -3.949E-02   AT NODE       8240   DOF  3
   INSTANCE: SPIRAL-1                                                                        
  CORRESPONDING RESIDUAL FORCE     -3.949E-02
 LARGEST INCREMENT OF DISP.        -7.633E-04   AT NODE        117   DOF  3
   INSTANCE: SPIRAL-1                                                                        
 LARGEST CORRECTION TO DISP.       -6.363E-05   AT NODE        166   DOF  2
   INSTANCE: SPIRAL-1                                                                        
          FORCE     EQUILIBRIUM NOT ACHIEVED WITHIN TOLERANCE.
 
	SYMMETRIC PURE THREAD-BASED DIRECT SPARSE SOLVER RUNNING ON
 	1 HOST x 1 MPI RANK PER HOST x 1 THREAD PER RANK
        NUMBER OF EQUATIONS:  90774
        NUMBER OF RHS:        1
        NUMBER OF FLOPS:      6.037e+09
        SOLVER ELAPSED TIME:  560ms

               CONVERGENCE CHECKS FOR EQUILIBRIUM ITERATION     2


 AVERAGE FORCE                      0.646       TIME AVG. FORCE       0.195    
 LARGEST SCALED RESIDUAL FORCE     -5.418E-03   AT NODE       2109   DOF  3
   INSTANCE: SPIRAL-1                                                                        
  CORRESPONDING RESIDUAL FORCE     -5.418E-03
 LARGEST INCREMENT OF DISP.         7.634E-04   AT NODE        218   DOF  3
   INSTANCE: SPIRAL-1                                                                        
 LARGEST CORRECTION TO DISP.       -3.847E-07   AT NODE       8240   DOF  3
   INSTANCE: SPIRAL-1                                                                        
          FORCE     EQUILIBRIUM NOT ACHIEVED WITHIN TOLERANCE.
 
	SYMMETRIC PURE THREAD-BASED DIRECT SPARSE SOLVER RUNNING ON
 	1 HOST x 1 MPI RANK PER HOST x 1 THREAD PER RANK
        NUMBER OF EQUATIONS:  90774
        NUMBER OF RHS:        1
        NUMBER OF FLOPS:      6.037e+09
        SOLVER ELAPSED TIME:  524ms

               CONVERGENCE CHECKS FOR EQUILIBRIUM ITERATION     3


 AVERAGE FORCE                      0.646       TIME AVG. FORCE       0.195    
 LARGEST SCALED RESIDUAL FORCE     -9.894E-04   AT NODE       8203   DOF  3
   INSTANCE: SPIRAL-1                                                                        
  CORRESPONDING RESIDUAL FORCE     -9.894E-04
 LARGEST INCREMENT OF DISP.         7.634E-04   AT NODE        218   DOF  3
   INSTANCE: SPIRAL-1                                                                        
 LARGEST CORRECTION TO DISP.       -4.974E-08   AT NODE        225   DOF  3
   INSTANCE: SPIRAL-1                                                                        
          FORCE     EQUILIBRIUM NOT ACHIEVED WITHIN TOLERANCE.
 
	SYMMETRIC PURE THREAD-BASED DIRECT SPARSE SOLVER RUNNING ON
 	1 HOST x 1 MPI RANK PER HOST x 1 THREAD PER RANK
        NUMBER OF EQUATIONS:  90774
        NUMBER OF RHS:        1
        NUMBER OF FLOPS:      6.037e+09
        SOLVER ELAPSED TIME:  551ms

               CONVERGENCE CHECKS FOR EQUILIBRIUM ITERATION     4


 AVERAGE FORCE                      0.646       TIME AVG. FORCE       0.195    
 LARGEST SCALED RESIDUAL FORCE     -2.338E-04   AT NODE        219   DOF  3
   INSTANCE: SPIRAL-1                                                                        
  CORRESPONDING RESIDUAL FORCE     -2.338E-04
 LARGEST INCREMENT OF DISP.         7.634E-04   AT NODE        218   DOF  3
   INSTANCE: SPIRAL-1                                                                        
 LARGEST CORRECTION TO DISP.        8.932E-09   AT NODE        219   DOF  3
   INSTANCE: SPIRAL-1                                                                        
          THE FORCE     EQUILIBRIUM EQUATIONS HAVE CONVERGED

 ITERATION SUMMARY FOR THE INCREMENT:   4 TOTAL ITERATIONS, OF WHICH
   0 ARE SEVERE DISCONTINUITY ITERATIONS AND  4 ARE EQUILIBRIUM ITERATIONS.

 TIME INCREMENT COMPLETED  5.000E-02,  FRACTION OF STEP COMPLETED  0.914    
 STEP TIME COMPLETED       0.914    ,  TOTAL TIME COMPLETED        0.914    


  INCREMENT    28 STARTS. ATTEMPT NUMBER  1, TIME INCREMENT  5.000E-02
 
	SYMMETRIC PURE THREAD-BASED DIRECT SPARSE SOLVER RUNNING ON
 	1 HOST x 1 MPI RANK PER HOST x 1 THREAD PER RANK
        NUMBER OF EQUATIONS:  90774
        NUMBER OF RHS:        1
        NUMBER OF FLOPS:      6.037e+09
        SOLVER ELAPSED TIME:  516ms

               CONVERGENCE CHECKS FOR EQUILIBRIUM ITERATION     1


 AVERAGE FORCE                      0.700       TIME AVG. FORCE       0.213    
 LARGEST SCALED RESIDUAL FORCE     -4.925E-02   AT NODE       8240   DOF  3
   INSTANCE: SPIRAL-1                                                                        
  CORRESPONDING RESIDUAL FORCE     -4.925E-02
 LARGEST INCREMENT OF DISP.        -8.166E-04   AT NODE        788   DOF  2
   INSTANCE: SPIRAL-1                                                                        
 LARGEST CORRECTION TO DISP.       -6.874E-05   AT NODE        166   DOF  2
   INSTANCE: SPIRAL-1                                                                        
          FORCE     EQUILIBRIUM NOT ACHIEVED WITHIN TOLERANCE.
 
	SYMMETRIC PURE THREAD-BASED DIRECT SPARSE SOLVER RUNNING ON
 	1 HOST x 1 MPI RANK PER HOST x 1 THREAD PER RANK
        NUMBER OF EQUATIONS:  90774
        NUMBER OF RHS:        1
        NUMBER OF FLOPS:      6.037e+09
        SOLVER ELAPSED TIME:  526ms

               CONVERGENCE CHECKS FOR EQUILIBRIUM ITERATION     2


 AVERAGE FORCE                      0.701       TIME AVG. FORCE       0.213    
 LARGEST SCALED RESIDUAL FORCE      8.351E-03   AT NODE       8240   DOF  3
   INSTANCE: SPIRAL-1                                                                        
  CORRESPONDING RESIDUAL FORCE      8.351E-03
 LARGEST INCREMENT OF DISP.        -8.167E-04   AT NODE        788   DOF  2
   INSTANCE: SPIRAL-1                                                                        
 LARGEST CORRECTION TO DISP.       -5.115E-07   AT NODE       8240   DOF  3
   INSTANCE: SPIRAL-1                                                                        
          FORCE     EQUILIBRIUM NOT ACHIEVED WITHIN TOLERANCE.
 
	SYMMETRIC PURE THREAD-BASED DIRECT SPARSE SOLVER RUNNING ON
 	1 HOST x 1 MPI RANK PER HOST x 1 THREAD PER RANK
        NUMBER OF EQUATIONS:  90774
        NUMBER OF RHS:        1
        NUMBER OF FLOPS:      6.037e+09
        SOLVER ELAPSED TIME:  510ms

               CONVERGENCE CHECKS FOR EQUILIBRIUM ITERATION     3


 AVERAGE FORCE                      0.701       TIME AVG. FORCE       0.213    
 LARGEST SCALED RESIDUAL FORCE     -1.826E-03   AT NODE       8203   DOF  3
   INSTANCE: SPIRAL-1                                                                        
  CORRESPONDING RESIDUAL FORCE     -1.826E-03
 LARGEST INCREMENT OF DISP.        -8.166E-04   AT NODE        788   DOF  2
   INSTANCE: SPIRAL-1                                                                        
 LARGEST CORRECTION TO DISP.       -8.922E-08   AT NODE        225   DOF  3
   INSTANCE: SPIRAL-1                                                                        
          FORCE     EQUILIBRIUM NOT ACHIEVED WITHIN TOLERANCE.
 
	SYMMETRIC PURE THREAD-BASED DIRECT SPARSE SOLVER RUNNING ON
 	1 HOST x 1 MPI RANK PER HOST x 1 THREAD PER RANK
        NUMBER OF EQUATIONS:  90774
        NUMBER OF RHS:        1
        NUMBER OF FLOPS:      6.037e+09
        SOLVER ELAPSED TIME:  522ms

               CONVERGENCE CHECKS FOR EQUILIBRIUM ITERATION     4


 AVERAGE FORCE                      0.701       TIME AVG. FORCE       0.213    
 LARGEST SCALED RESIDUAL FORCE     -4.874E-04   AT NODE        219   DOF  3
   INSTANCE: SPIRAL-1                                                                        
  CORRESPONDING RESIDUAL FORCE     -4.874E-04
 LARGEST INCREMENT OF DISP.        -8.166E-04   AT NODE        788   DOF  2
   INSTANCE: SPIRAL-1                                                                        
 LARGEST CORRECTION TO DISP.       -1.840E-08   AT NODE        137   DOF  3
   INSTANCE: SPIRAL-1                                                                        
          THE FORCE     EQUILIBRIUM EQUATIONS HAVE CONVERGED

 ITERATION SUMMARY FOR THE INCREMENT:   4 TOTAL ITERATIONS, OF WHICH
   0 ARE SEVERE DISCONTINUITY ITERATIONS AND  4 ARE EQUILIBRIUM ITERATIONS.

 TIME INCREMENT COMPLETED  5.000E-02,  FRACTION OF STEP COMPLETED  0.964    
 STEP TIME COMPLETED       0.964    ,  TOTAL TIME COMPLETED        0.964    


  INCREMENT    29 STARTS. ATTEMPT NUMBER  1, TIME INCREMENT  3.567E-02
 
	SYMMETRIC PURE THREAD-BASED DIRECT SPARSE SOLVER RUNNING ON
 	1 HOST x 1 MPI RANK PER HOST x 1 THREAD PER RANK
        NUMBER OF EQUATIONS:  90774
        NUMBER OF RHS:        1
        NUMBER OF FLOPS:      6.037e+09
        SOLVER ELAPSED TIME:  505ms

               CONVERGENCE CHECKS FOR EQUILIBRIUM ITERATION     1


 AVERAGE FORCE                      0.741       TIME AVG. FORCE       0.231    
 LARGEST SCALED RESIDUAL FORCE     -3.458E-02   AT NODE       8240   DOF  3
   INSTANCE: SPIRAL-1                                                                        
  CORRESPONDING RESIDUAL FORCE     -3.458E-02
 LARGEST INCREMENT OF DISP.        -6.270E-04   AT NODE        788   DOF  2
   INSTANCE: SPIRAL-1                                                                        
 LARGEST CORRECTION TO DISP.       -4.519E-05   AT NODE        166   DOF  2
   INSTANCE: SPIRAL-1                                                                        
          FORCE     EQUILIBRIUM NOT ACHIEVED WITHIN TOLERANCE.
 
	SYMMETRIC PURE THREAD-BASED DIRECT SPARSE SOLVER RUNNING ON
 	1 HOST x 1 MPI RANK PER HOST x 1 THREAD PER RANK
        NUMBER OF EQUATIONS:  90774
        NUMBER OF RHS:        1
        NUMBER OF FLOPS:      6.037e+09
        SOLVER ELAPSED TIME:  538ms

               CONVERGENCE CHECKS FOR EQUILIBRIUM ITERATION     2


 AVERAGE FORCE                      0.741       TIME AVG. FORCE       0.231    
 LARGEST SCALED RESIDUAL FORCE      7.399E-03   AT NODE       8240   DOF  3
   INSTANCE: SPIRAL-1                                                                        
  CORRESPONDING RESIDUAL FORCE      7.399E-03
 LARGEST INCREMENT OF DISP.        -6.270E-04   AT NODE        788   DOF  2
   INSTANCE: SPIRAL-1                                                                        
 LARGEST CORRECTION TO DISP.       -3.673E-07   AT NODE       8240   DOF  3
   INSTANCE: SPIRAL-1                                                                        
          FORCE     EQUILIBRIUM NOT ACHIEVED WITHIN TOLERANCE.
 
	SYMMETRIC PURE THREAD-BASED DIRECT SPARSE SOLVER RUNNING ON
 	1 HOST x 1 MPI RANK PER HOST x 1 THREAD PER RANK
        NUMBER OF EQUATIONS:  90774
        NUMBER OF RHS:        1
        NUMBER OF FLOPS:      6.037e+09
        SOLVER ELAPSED TIME:  541ms

               CONVERGENCE CHECKS FOR EQUILIBRIUM ITERATION     3


 AVERAGE FORCE                      0.741       TIME AVG. FORCE       0.231    
 LARGEST SCALED RESIDUAL FORCE     -1.858E-03   AT NODE       8203   DOF  3
   INSTANCE: SPIRAL-1                                                                        
  CORRESPONDING RESIDUAL FORCE     -1.858E-03
 LARGEST INCREMENT OF DISP.        -6.270E-04   AT NODE        788   DOF  2
   INSTANCE: SPIRAL-1                                                                        
 LARGEST CORRECTION TO DISP.        5.356E-08   AT NODE       8240   DOF  3
   INSTANCE: SPIRAL-1                                                                        
          FORCE     EQUILIBRIUM NOT ACHIEVED WITHIN TOLERANCE.
 
	SYMMETRIC PURE THREAD-BASED DIRECT SPARSE SOLVER RUNNING ON
 	1 HOST x 1 MPI RANK PER HOST x 1 THREAD PER RANK
        NUMBER OF EQUATIONS:  90774
        NUMBER OF RHS:        1
        NUMBER OF FLOPS:      6.037e+09
        SOLVER ELAPSED TIME:  538ms

               CONVERGENCE CHECKS FOR EQUILIBRIUM ITERATION     4


 AVERAGE FORCE                      0.741       TIME AVG. FORCE       0.231    
 LARGEST SCALED RESIDUAL FORCE      5.703E-04   AT NODE       8203   DOF  3
   INSTANCE: SPIRAL-1                                                                        
  CORRESPONDING RESIDUAL FORCE      5.703E-04
 LARGEST INCREMENT OF DISP.        -6.270E-04   AT NODE        788   DOF  2
   INSTANCE: SPIRAL-1                                                                        
 LARGEST CORRECTION TO DISP.       -1.948E-08   AT NODE        131   DOF  3
   INSTANCE: SPIRAL-1                                                                        
          THE FORCE     EQUILIBRIUM EQUATIONS HAVE CONVERGED

 ITERATION SUMMARY FOR THE INCREMENT:   4 TOTAL ITERATIONS, OF WHICH
   0 ARE SEVERE DISCONTINUITY ITERATIONS AND  4 ARE EQUILIBRIUM ITERATIONS.

 TIME INCREMENT COMPLETED  3.567E-02,  FRACTION OF STEP COMPLETED   1.00    
 STEP TIME COMPLETED        1.00    ,  TOTAL TIME COMPLETED         1.00    


          THE ANALYSIS HAS BEEN COMPLETED



     ANALYSIS SUMMARY:
     TOTAL OF         29  INCREMENTS
                       0  CUTBACKS IN AUTOMATIC INCREMENTATION
                      76  ITERATIONS INCLUDING CONTACT ITERATIONS IF PRESENT
                      76  PASSES THROUGH THE EQUATION SOLVER OF WHICH 
                      76  INVOLVE MATRIX DECOMPOSITION, INCLUDING
                       0  DECOMPOSITION(S) OF THE MASS MATRIX
                       1  REORDERING OF EQUATIONS TO MINIMIZE WAVEFRONT
                       0  ADDITIONAL RESIDUAL EVALUATIONS FOR LINE SEARCHES
                       0  ADDITIONAL OPERATOR EVALUATIONS FOR LINE SEARCHES
                       1  WARNING MESSAGES DURING USER INPUT PROCESSING
                       0  WARNING MESSAGES DURING ANALYSIS
                       0  ANALYSIS WARNINGS ARE NUMERICAL PROBLEM MESSAGES
                       0  ANALYSIS WARNINGS ARE NEGATIVE EIGENVALUE MESSAGES
                       0  ERROR MESSAGES



     JOB TIME SUMMARY
       USER TIME (SEC)      =     5.99E+02
       SYSTEM TIME (SEC)    =      69.    
       TOTAL CPU TIME (SEC) =     6.68E+02
       WALLCLOCK TIME (SEC) =          127
       MEMORY PEAK (GB)     =            0
