1

   Abaqus 2025                                  Date 22-Feb-2026   Time 02:54:47
   For use by UNIVERSITAET STUTTGART under license from Dassault Systemes or its subsidiary.

                                                                                 
                                                                                 
 STEP    1     INCREMENT     1     STEP TIME    0.00    


                        S T E P       1     S T A T I C   A N A L Y S I S


                                                                                          

     AUTOMATIC TIME CONTROL WITH -
          A SUGGESTED INITIAL TIME INCREMENT OF                 1.00    
          AND A TOTAL TIME PERIOD OF                            1.00    
          THE MINIMUM TIME INCREMENT ALLOWED IS                1.000E-05
          THE MAXIMUM TIME INCREMENT ALLOWED IS                 1.00    

     LINEAR EQUATION SOLVER TYPE         DIRECT SPARSE

 CONVERGENCE TOLERANCE PARAMETERS FOR FORCE    
     CRITERION FOR RESIDUAL FORCE     FOR A NONLINEAR PROBLEM          5.000E-03
     CRITERION FOR DISP.    CORRECTION IN A NONLINEAR PROBLEM          1.000E-02
     INITIAL VALUE OF TIME AVERAGE FORCE                               1.000E-02
     AVERAGE FORCE     IS TIME AVERAGE FORCE    
     ALTERNATE CRIT. FOR RESIDUAL FORCE     FOR A NONLINEAR PROBLEM    2.000E-02
     CRITERION FOR ZERO FORCE     RELATIVE TO TIME AVRG. FORCE         1.000E-05
     CRITERION FOR RESIDUAL FORCE     WHEN THERE IS ZERO FLUX          1.000E-05
     CRITERION FOR DISP.    CORRECTION WHEN THERE IS ZERO FLUX         1.000E-03
     CRITERION FOR RESIDUAL FORCE     FOR A LINEAR INCREMENT           1.000E-08
     FIELD CONVERSION RATIO                                             1.00    
     CRITERION FOR ZERO FORCE     REL. TO TIME AVRG. MAX. FORCE        1.000E-05
     CRITERION FOR ZERO DISP.    RELATIVE TO CHARACTERISTIC LENGTH     1.000E-08

     VOLUMETRIC STRAIN COMPATIBILITY TOLERANCE FOR HYBRID SOLIDS       1.000E-05
     AXIAL STRAIN COMPATIBILITY TOLERANCE FOR HYBRID BEAMS             1.000E-05
     TRANS. SHEAR STRAIN COMPATIBILITY TOLERANCE FOR HYBRID BEAMS      1.000E-05
     SOFT CONTACT CONSTRAINT COMPATIBILITY TOLERANCE FOR P>P0          5.000E-03
     SOFT CONTACT CONSTRAINT COMPATIBILITY TOLERANCE FOR P=0.0         0.100    
     CONTACT FORCE ERROR TOLERANCE FOR CONVERT SDI=YES                 1.00    
     DISPLACEMENT COMPATIBILITY TOLERANCE FOR DCOUP ELEMENTS           1.000E-05
     ROTATION COMPATIBILITY TOLERANCE FOR DCOUP ELEMENTS               1.000E-05

 EQUILIBRIUM WILL BE CHECKED FOR SEVERE DISCONTINUITY ITERATIONS

 TIME INCREMENTATION CONTROL PARAMETERS:
     FIRST EQUILIBRIUM ITERATION FOR CONSECUTIVE DIVERGENCE CHECK              4
     EQUILIBRIUM ITERATION AT WHICH LOG. CONVERGENCE RATE CHECK BEGINS         8
     EQUILIBRIUM ITERATION AFTER WHICH ALTERNATE RESIDUAL IS USED              9
     MAXIMUM EQUILIBRIUM ITERATIONS ALLOWED                                   16
     EQUILIBRIUM ITERATION COUNT FOR CUT-BACK IN NEXT INCREMENT               10
     MAXIMUM EQUILIB. ITERS IN TWO INCREMENTS FOR TIME INCREMENT INCREASE      4
     MAXIMUM ITERATIONS FOR SEVERE DISCONTINUITIES                            50
     MAXIMUM ATTEMPTS ALLOWED IN AN INCREMENT                                  5
     MAXIMUM DISCON. ITERS IN TWO INCREMENTS FOR TIME INCREMENT INCREASE      50
     MAXIMUM CONTACT AUGMENTATIONS FOR *SURFACE BEHAVIOR,AUGMENTED LAGRANGE   50
     CUT-BACK FACTOR AFTER DIVERGENCE                                 0.2500    
     CUT-BACK FACTOR FOR TOO SLOW CONVERGENCE                         0.5000    
     CUT-BACK FACTOR AFTER TOO MANY EQUILIBRIUM ITERATIONS            0.7500    
     CUT-BACK FACTOR AFTER TOO MANY SEVERE DISCONTINUITY ITERATIONS   0.2500    
     CUT-BACK FACTOR AFTER PROBLEMS IN ELEMENT ASSEMBLY               0.2500    
     INCREASE FACTOR AFTER TWO INCREMENTS THAT CONVERGE QUICKLY        1.500    
     MAX. TIME INCREMENT INCREASE FACTOR ALLOWED                       1.500    
     MAX. TIME INCREMENT INCREASE FACTOR ALLOWED (DYNAMICS)            1.250    
     MAX. TIME INCREMENT INCREASE FACTOR ALLOWED (DIFFUSION)           2.000    
     MINIMUM TIME INCREMENT RATIO FOR EXTRAPOLATION TO OCCUR          0.1000    
     MAX. RATIO OF TIME INCREMENT TO STABILITY LIMIT                   1.000    
     FRACTION OF STABILITY LIMIT FOR NEW TIME INCREMENT               0.9500    
     TIME INCREMENT INCREASE FACTOR BEFORE A TIME POINT                1.000    
     GLOBAL STABILIZATION CONTROL IS NOT USED

          PRINT OF INCREMENT NUMBER, TIME, ETC., EVERY    1  INCREMENTS

     THE MAXIMUM NUMBER OF INCREMENTS IN THIS STEP IS                     100

          LARGE DISPLACEMENT THEORY WILL BE USED

     LINEAR EXTRAPOLATION WILL BE USED

     CHARACTERISTIC ELEMENT LENGTH     8.268E-04

     DETAILS REGARDING ACTUAL SOLUTION WAVEFRONT REQUESTED

     DETAILED OUTPUT OF DIAGNOSTICS TO DATABASE REQUESTED

     PRINT OF INCREMENT NUMBER, TIME, ETC., TO THE MESSAGE FILE EVERY     1  INCREMENTS

     COLLECTING MODEL CONSTRAINT INFORMATION FOR OVERCONSTRAINT CHECKS

     COLLECTING STEP CONSTRAINT INFORMATION FOR OVERCONSTRAINT CHECKS


  INCREMENT     1 STARTS. ATTEMPT NUMBER  1, TIME INCREMENT   1.00    
 
	SYMMETRIC PURE THREAD-BASED DIRECT SPARSE SOLVER RUNNING ON
 	1 HOST x 1 MPI RANK PER HOST x 1 THREAD PER RANK
        NUMBER OF EQUATIONS:  90774
        NUMBER OF RHS:        1
        NUMBER OF FLOPS:      6.037e+09
        SOLVER ELAPSED TIME:  234ms

               CONVERGENCE CHECKS FOR EQUILIBRIUM ITERATION     1


 AVERAGE FORCE                      5.534E+03   TIME AVG. FORCE       5.534E+03
 LARGEST SCALED RESIDUAL FORCE      1.198E+05   AT NODE      11029   DOF  1
   INSTANCE: SPIRAL-1                                                                        
  CORRESPONDING RESIDUAL FORCE      1.198E+05
 LARGEST INCREMENT OF DISP.        -0.239       AT NODE       3156   DOF  3
   INSTANCE: SPIRAL-1                                                                        
 LARGEST CORRECTION TO DISP.       -0.239       AT NODE       3156   DOF  3
   INSTANCE: SPIRAL-1                                                                        
          FORCE     EQUILIBRIUM NOT ACHIEVED WITHIN TOLERANCE.
 
	SYMMETRIC PURE THREAD-BASED DIRECT SPARSE SOLVER RUNNING ON
 	1 HOST x 1 MPI RANK PER HOST x 1 THREAD PER RANK
        NUMBER OF EQUATIONS:  90774
        NUMBER OF RHS:        1
        NUMBER OF FLOPS:      6.037e+09
        SOLVER ELAPSED TIME:  229ms
 

 ***WARNING: THE SYSTEM MATRIX HAS 28821 NEGATIVE EIGENVALUES.

     NEGATIVE EIGENVALUES MEAN THAT THE SYSTEM MATRIX IS NOT 
     POSITIVE DEFINITE:
     FOR EXAMPLE, A BIFURCATION (BUCKLING) LOAD MAY HAVE BEEN EXCEEDED.
   ELEMENT SPIRAL-1.2 IS DISTORTING EXCESSIVELY.
   ELEMENT SPIRAL-1.3 IS DISTORTING EXCESSIVELY.
   ELEMENT SPIRAL-1.5 IS DISTORTING EXCESSIVELY.
   ELEMENT SPIRAL-1.7 IS DISTORTING EXCESSIVELY.
   ELEMENT SPIRAL-1.9 IS DISTORTING EXCESSIVELY.
   ELEMENT SPIRAL-1.13 IS DISTORTING EXCESSIVELY.
   ELEMENT SPIRAL-1.14 IS DISTORTING EXCESSIVELY.
   ELEMENT SPIRAL-1.15 IS DISTORTING EXCESSIVELY.
   ELEMENT SPIRAL-1.19 IS DISTORTING EXCESSIVELY.
   ELEMENT SPIRAL-1.20 IS DISTORTING EXCESSIVELY.
   ELEMENT SPIRAL-1.23 IS DISTORTING EXCESSIVELY.
   ELEMENT SPIRAL-1.25 IS DISTORTING EXCESSIVELY.
   ELEMENT SPIRAL-1.26 IS DISTORTING EXCESSIVELY.
   ELEMENT SPIRAL-1.27 IS DISTORTING EXCESSIVELY.
   ELEMENT SPIRAL-1.29 IS DISTORTING EXCESSIVELY.
   ELEMENT SPIRAL-1.30 IS DISTORTING EXCESSIVELY.
   ELEMENT SPIRAL-1.37 IS DISTORTING EXCESSIVELY.
   ELEMENT SPIRAL-1.39 IS DISTORTING EXCESSIVELY.
   ELEMENT SPIRAL-1.42 IS DISTORTING EXCESSIVELY.
   ELEMENT SPIRAL-1.43 IS DISTORTING EXCESSIVELY.
   ELEMENT SPIRAL-1.46 IS DISTORTING EXCESSIVELY.
   ELEMENT SPIRAL-1.48 IS DISTORTING EXCESSIVELY.
   ELEMENT SPIRAL-1.49 IS DISTORTING EXCESSIVELY.
   ELEMENT SPIRAL-1.50 IS DISTORTING EXCESSIVELY.
   ELEMENT SPIRAL-1.51 IS DISTORTING EXCESSIVELY.
   ELEMENT SPIRAL-1.55 IS DISTORTING EXCESSIVELY.
   ELEMENT SPIRAL-1.56 IS DISTORTING EXCESSIVELY.
   ELEMENT SPIRAL-1.58 IS DISTORTING EXCESSIVELY.
   ELEMENT SPIRAL-1.59 IS DISTORTING EXCESSIVELY.
   ELEMENT SPIRAL-1.63 IS DISTORTING EXCESSIVELY.
   ELEMENT SPIRAL-1.66 IS DISTORTING EXCESSIVELY.
   ELEMENT SPIRAL-1.67 IS DISTORTING EXCESSIVELY.
   ELEMENT SPIRAL-1.68 IS DISTORTING EXCESSIVELY.
   ELEMENT SPIRAL-1.70 IS DISTORTING EXCESSIVELY.
   ELEMENT SPIRAL-1.72 IS DISTORTING EXCESSIVELY.
   ELEMENT SPIRAL-1.73 IS DISTORTING EXCESSIVELY.
   ELEMENT SPIRAL-1.74 IS DISTORTING EXCESSIVELY.
   ELEMENT SPIRAL-1.76 IS DISTORTING EXCESSIVELY.
   ELEMENT SPIRAL-1.79 IS DISTORTING EXCESSIVELY.
   ELEMENT SPIRAL-1.84 IS DISTORTING EXCESSIVELY.
   ELEMENT SPIRAL-1.85 IS DISTORTING EXCESSIVELY.
   ELEMENT SPIRAL-1.88 IS DISTORTING EXCESSIVELY.
   ELEMENT SPIRAL-1.89 IS DISTORTING EXCESSIVELY.
   ELEMENT SPIRAL-1.90 IS DISTORTING EXCESSIVELY.
   ELEMENT SPIRAL-1.91 IS DISTORTING EXCESSIVELY.
   ELEMENT SPIRAL-1.93 IS DISTORTING EXCESSIVELY.
   ELEMENT SPIRAL-1.96 IS DISTORTING EXCESSIVELY.
   ELEMENT SPIRAL-1.98 IS DISTORTING EXCESSIVELY.
   ELEMENT SPIRAL-1.99 IS DISTORTING EXCESSIVELY.
   ELEMENT SPIRAL-1.100 IS DISTORTING EXCESSIVELY.
   ELEMENT SPIRAL-1.101 IS DISTORTING EXCESSIVELY.
   ELEMENT SPIRAL-1.102 IS DISTORTING EXCESSIVELY.
   ELEMENT SPIRAL-1.103 IS DISTORTING EXCESSIVELY.
   ELEMENT SPIRAL-1.104 IS DISTORTING EXCESSIVELY.
   ELEMENT SPIRAL-1.105 IS DISTORTING EXCESSIVELY.
   ELEMENT SPIRAL-1.107 IS DISTORTING EXCESSIVELY.
   ELEMENT SPIRAL-1.112 IS DISTORTING EXCESSIVELY.
   ELEMENT SPIRAL-1.114 IS DISTORTING EXCESSIVELY.
   ELEMENT SPIRAL-1.115 IS DISTORTING EXCESSIVELY.
   ELEMENT SPIRAL-1.117 IS DISTORTING EXCESSIVELY.
   ELEMENT SPIRAL-1.118 IS DISTORTING EXCESSIVELY.
   ELEMENT SPIRAL-1.120 IS DISTORTING EXCESSIVELY.
   ELEMENT SPIRAL-1.123 IS DISTORTING EXCESSIVELY.
   ELEMENT SPIRAL-1.124 IS DISTORTING EXCESSIVELY.
   ELEMENT SPIRAL-1.125 IS DISTORTING EXCESSIVELY.
   ELEMENT SPIRAL-1.126 IS DISTORTING EXCESSIVELY.
   ELEMENT SPIRAL-1.127 IS DISTORTING EXCESSIVELY.
   ELEMENT SPIRAL-1.129 IS DISTORTING EXCESSIVELY.
   ELEMENT SPIRAL-1.131 IS DISTORTING EXCESSIVELY.
   ELEMENT SPIRAL-1.133 IS DISTORTING EXCESSIVELY.
   ELEMENT SPIRAL-1.136 IS DISTORTING EXCESSIVELY.
   ELEMENT SPIRAL-1.140 IS DISTORTING EXCESSIVELY.
   ELEMENT SPIRAL-1.141 IS DISTORTING EXCESSIVELY.
   ELEMENT SPIRAL-1.145 IS DISTORTING EXCESSIVELY.
   ELEMENT SPIRAL-1.148 IS DISTORTING EXCESSIVELY.
   ELEMENT SPIRAL-1.149 IS DISTORTING EXCESSIVELY.
   ELEMENT SPIRAL-1.152 IS DISTORTING EXCESSIVELY.
   ELEMENT SPIRAL-1.156 IS DISTORTING EXCESSIVELY.
   ELEMENT SPIRAL-1.158 IS DISTORTING EXCESSIVELY.
   ELEMENT SPIRAL-1.159 IS DISTORTING EXCESSIVELY.
   ELEMENT SPIRAL-1.163 IS DISTORTING EXCESSIVELY.
   ELEMENT SPIRAL-1.166 IS DISTORTING EXCESSIVELY.
   ELEMENT SPIRAL-1.170 IS DISTORTING EXCESSIVELY.
   ELEMENT SPIRAL-1.172 IS DISTORTING EXCESSIVELY.
   ELEMENT SPIRAL-1.173 IS DISTORTING EXCESSIVELY.
   ELEMENT SPIRAL-1.175 IS DISTORTING EXCESSIVELY.
   ELEMENT SPIRAL-1.178 IS DISTORTING EXCESSIVELY.
   ELEMENT SPIRAL-1.179 IS DISTORTING EXCESSIVELY.
   ELEMENT SPIRAL-1.182 IS DISTORTING EXCESSIVELY.
   ELEMENT SPIRAL-1.184 IS DISTORTING EXCESSIVELY.
   ELEMENT SPIRAL-1.186 IS DISTORTING EXCESSIVELY.
   ELEMENT SPIRAL-1.188 IS DISTORTING EXCESSIVELY.
   ELEMENT SPIRAL-1.189 IS DISTORTING EXCESSIVELY.
   ELEMENT SPIRAL-1.191 IS DISTORTING EXCESSIVELY.
   ELEMENT SPIRAL-1.192 IS DISTORTING EXCESSIVELY.
   ELEMENT SPIRAL-1.196 IS DISTORTING EXCESSIVELY.
   ELEMENT SPIRAL-1.198 IS DISTORTING EXCESSIVELY.
   ELEMENT SPIRAL-1.206 IS DISTORTING EXCESSIVELY.
   ELEMENT SPIRAL-1.207 IS DISTORTING EXCESSIVELY.
   ELEMENT SPIRAL-1.210 IS DISTORTING EXCESSIVELY.
   ELEMENT SPIRAL-1.211 IS DISTORTING EXCESSIVELY.
   ELEMENT SPIRAL-1.212 IS DISTORTING EXCESSIVELY.
   ELEMENT SPIRAL-1.213 IS DISTORTING EXCESSIVELY.
   ELEMENT SPIRAL-1.214 IS DISTORTING EXCESSIVELY.
   ELEMENT SPIRAL-1.216 IS DISTORTING EXCESSIVELY.
   ELEMENT SPIRAL-1.218 IS DISTORTING EXCESSIVELY.
   ELEMENT SPIRAL-1.219 IS DISTORTING EXCESSIVELY.
   ELEMENT SPIRAL-1.220 IS DISTORTING EXCESSIVELY.
   ELEMENT SPIRAL-1.223 IS DISTORTING EXCESSIVELY.
   ELEMENT SPIRAL-1.225 IS DISTORTING EXCESSIVELY.
   ELEMENT SPIRAL-1.226 IS DISTORTING EXCESSIVELY.
   ELEMENT SPIRAL-1.230 IS DISTORTING EXCESSIVELY.
   ELEMENT SPIRAL-1.232 IS DISTORTING EXCESSIVELY.
   ELEMENT SPIRAL-1.233 IS DISTORTING EXCESSIVELY.
   ELEMENT SPIRAL-1.234 IS DISTORTING EXCESSIVELY.
   ELEMENT SPIRAL-1.235 IS DISTORTING EXCESSIVELY.
   ELEMENT SPIRAL-1.236 IS DISTORTING EXCESSIVELY.
   ELEMENT SPIRAL-1.237 IS DISTORTING EXCESSIVELY.
   ELEMENT SPIRAL-1.238 IS DISTORTING EXCESSIVELY.
   ELEMENT SPIRAL-1.240 IS DISTORTING EXCESSIVELY.
   ELEMENT SPIRAL-1.241 IS DISTORTING EXCESSIVELY.
   ELEMENT SPIRAL-1.242 IS DISTORTING EXCESSIVELY.
   ELEMENT SPIRAL-1.244 IS DISTORTING EXCESSIVELY.
   ELEMENT SPIRAL-1.245 IS DISTORTING EXCESSIVELY.
   ELEMENT SPIRAL-1.246 IS DISTORTING EXCESSIVELY.
   ELEMENT SPIRAL-1.247 IS DISTORTING EXCESSIVELY.
   ELEMENT SPIRAL-1.248 IS DISTORTING EXCESSIVELY.
   ELEMENT SPIRAL-1.249 IS DISTORTING EXCESSIVELY.
   ELEMENT SPIRAL-1.250 IS DISTORTING EXCESSIVELY.
   ELEMENT SPIRAL-1.251 IS DISTORTING EXCESSIVELY.
   ELEMENT SPIRAL-1.252 IS DISTORTING EXCESSIVELY.
   ELEMENT SPIRAL-1.253 IS DISTORTING EXCESSIVELY.
   ELEMENT SPIRAL-1.254 IS DISTORTING EXCESSIVELY.
   ELEMENT SPIRAL-1.256 IS DISTORTING EXCESSIVELY.
   ELEMENT SPIRAL-1.260 IS DISTORTING EXCESSIVELY.
   ELEMENT SPIRAL-1.261 IS DISTORTING EXCESSIVELY.
   ELEMENT SPIRAL-1.262 IS DISTORTING EXCESSIVELY.
   ELEMENT SPIRAL-1.263 IS DISTORTING EXCESSIVELY.
   ELEMENT SPIRAL-1.264 IS DISTORTING EXCESSIVELY.
   ELEMENT SPIRAL-1.266 IS DISTORTING EXCESSIVELY.
   ELEMENT SPIRAL-1.271 IS DISTORTING EXCESSIVELY.
   ELEMENT SPIRAL-1.278 IS DISTORTING EXCESSIVELY.
   ELEMENT SPIRAL-1.279 IS DISTORTING EXCESSIVELY.
   ELEMENT SPIRAL-1.283 IS DISTORTING EXCESSIVELY.
   ELEMENT SPIRAL-1.284 IS DISTORTING EXCESSIVELY.
   ELEMENT SPIRAL-1.285 IS DISTORTING EXCESSIVELY.
   ELEMENT SPIRAL-1.286 IS DISTORTING EXCESSIVELY.
   ELEMENT SPIRAL-1.287 IS DISTORTING EXCESSIVELY.
   ELEMENT SPIRAL-1.288 IS DISTORTING EXCESSIVELY.
   ELEMENT SPIRAL-1.293 IS DISTORTING EXCESSIVELY.
   ELEMENT SPIRAL-1.294 IS DISTORTING EXCESSIVELY.
   ELEMENT SPIRAL-1.296 IS DISTORTING EXCESSIVELY.
   ELEMENT SPIRAL-1.298 IS DISTORTING EXCESSIVELY.
   ELEMENT SPIRAL-1.299 IS DISTORTING EXCESSIVELY.
   ELEMENT SPIRAL-1.301 IS DISTORTING EXCESSIVELY.
   ELEMENT SPIRAL-1.304 IS DISTORTING EXCESSIVELY.
   ELEMENT SPIRAL-1.305 IS DISTORTING EXCESSIVELY.
   ELEMENT SPIRAL-1.307 IS DISTORTING EXCESSIVELY.
   ELEMENT SPIRAL-1.310 IS DISTORTING EXCESSIVELY.
   ELEMENT SPIRAL-1.320 IS DISTORTING EXCESSIVELY.
   ELEMENT SPIRAL-1.322 IS DISTORTING EXCESSIVELY.
   ELEMENT SPIRAL-1.325 IS DISTORTING EXCESSIVELY.
   ELEMENT SPIRAL-1.327 IS DISTORTING EXCESSIVELY.
   ELEMENT SPIRAL-1.328 IS DISTORTING EXCESSIVELY.
   ELEMENT SPIRAL-1.329 IS DISTORTING EXCESSIVELY.
   ELEMENT SPIRAL-1.331 IS DISTORTING EXCESSIVELY.
   ELEMENT SPIRAL-1.333 IS DISTORTING EXCESSIVELY.
   ELEMENT SPIRAL-1.334 IS DISTORTING EXCESSIVELY.
   ELEMENT SPIRAL-1.335 IS DISTORTING EXCESSIVELY.
   ELEMENT SPIRAL-1.336 IS DISTORTING EXCESSIVELY.
   ELEMENT SPIRAL-1.340 IS DISTORTING EXCESSIVELY.
   ELEMENT SPIRAL-1.341 IS DISTORTING EXCESSIVELY.
   ELEMENT SPIRAL-1.343 IS DISTORTING EXCESSIVELY.
   ELEMENT SPIRAL-1.344 IS DISTORTING EXCESSIVELY.
   ELEMENT SPIRAL-1.347 IS DISTORTING EXCESSIVELY.
   ELEMENT SPIRAL-1.348 IS DISTORTING EXCESSIVELY.
   ELEMENT SPIRAL-1.349 IS DISTORTING EXCESSIVELY.
   ELEMENT SPIRAL-1.354 IS DISTORTING EXCESSIVELY.
   ELEMENT SPIRAL-1.358 IS DISTORTING EXCESSIVELY.
   ELEMENT SPIRAL-1.361 IS DISTORTING EXCESSIVELY.
   ELEMENT SPIRAL-1.366 IS DISTORTING EXCESSIVELY.
   ELEMENT SPIRAL-1.368 IS DISTORTING EXCESSIVELY.
   ELEMENT SPIRAL-1.370 IS DISTORTING EXCESSIVELY.
   ELEMENT SPIRAL-1.371 IS DISTORTING EXCESSIVELY.
   ELEMENT SPIRAL-1.372 IS DISTORTING EXCESSIVELY.
   ELEMENT SPIRAL-1.373 IS DISTORTING EXCESSIVELY.
   ELEMENT SPIRAL-1.375 IS DISTORTING EXCESSIVELY.
   ELEMENT SPIRAL-1.376 IS DISTORTING EXCESSIVELY.
   ELEMENT SPIRAL-1.379 IS DISTORTING EXCESSIVELY.
   ELEMENT SPIRAL-1.381 IS DISTORTING EXCESSIVELY.
   ELEMENT SPIRAL-1.382 IS DISTORTING EXCESSIVELY.
   ELEMENT SPIRAL-1.384 IS DISTORTING EXCESSIVELY.
   ELEMENT SPIRAL-1.388 IS DISTORTING EXCESSIVELY.
   ELEMENT SPIRAL-1.389 IS DISTORTING EXCESSIVELY.
   ELEMENT SPIRAL-1.403 IS DISTORTING EXCESSIVELY.
   ELEMENT SPIRAL-1.404 IS DISTORTING EXCESSIVELY.
   ELEMENT SPIRAL-1.405 IS DISTORTING EXCESSIVELY.
   ELEMENT SPIRAL-1.406 IS DISTORTING EXCESSIVELY.
   ELEMENT SPIRAL-1.407 IS DISTORTING EXCESSIVELY.
   ELEMENT SPIRAL-1.411 IS DISTORTING EXCESSIVELY.
   ELEMENT SPIRAL-1.414 IS DISTORTING EXCESSIVELY.
   ELEMENT SPIRAL-1.415 IS DISTORTING EXCESSIVELY.
   ELEMENT SPIRAL-1.416 IS DISTORTING EXCESSIVELY.
   ELEMENT SPIRAL-1.417 IS DISTORTING EXCESSIVELY.
   ELEMENT SPIRAL-1.418 IS DISTORTING EXCESSIVELY.
   ELEMENT SPIRAL-1.420 IS DISTORTING EXCESSIVELY.
   ELEMENT SPIRAL-1.421 IS DISTORTING EXCESSIVELY.
   ELEMENT SPIRAL-1.423 IS DISTORTING EXCESSIVELY.
   ELEMENT SPIRAL-1.424 IS DISTORTING EXCESSIVELY.
   ELEMENT SPIRAL-1.426 IS DISTORTING EXCESSIVELY.
   ELEMENT SPIRAL-1.427 IS DISTORTING EXCESSIVELY.
   ELEMENT SPIRAL-1.429 IS DISTORTING EXCESSIVELY.
   ELEMENT SPIRAL-1.431 IS DISTORTING EXCESSIVELY.
   ELEMENT SPIRAL-1.433 IS DISTORTING EXCESSIVELY.
   ELEMENT SPIRAL-1.434 IS DISTORTING EXCESSIVELY.
   ELEMENT SPIRAL-1.435 IS DISTORTING EXCESSIVELY.
   ELEMENT SPIRAL-1.436 IS DISTORTING EXCESSIVELY.
   ELEMENT SPIRAL-1.437 IS DISTORTING EXCESSIVELY.
   ELEMENT SPIRAL-1.438 IS DISTORTING EXCESSIVELY.
   ELEMENT SPIRAL-1.439 IS DISTORTING EXCESSIVELY.
   ELEMENT SPIRAL-1.440 IS DISTORTING EXCESSIVELY.
   ELEMENT SPIRAL-1.442 IS DISTORTING EXCESSIVELY.
   ELEMENT SPIRAL-1.446 IS DISTORTING EXCESSIVELY.
   ELEMENT SPIRAL-1.449 IS DISTORTING EXCESSIVELY.
   ELEMENT SPIRAL-1.454 IS DISTORTING EXCESSIVELY.
   ELEMENT SPIRAL-1.455 IS DISTORTING EXCESSIVELY.
   ELEMENT SPIRAL-1.457 IS DISTORTING EXCESSIVELY.
   ELEMENT SPIRAL-1.459 IS DISTORTING EXCESSIVELY.
   ELEMENT SPIRAL-1.460 IS DISTORTING EXCESSIVELY.
   ELEMENT SPIRAL-1.462 IS DISTORTING EXCESSIVELY.
   ELEMENT SPIRAL-1.466 IS DISTORTING EXCESSIVELY.
   ELEMENT SPIRAL-1.467 IS DISTORTING EXCESSIVELY.
   ELEMENT SPIRAL-1.468 IS DISTORTING EXCESSIVELY.
   ELEMENT SPIRAL-1.469 IS DISTORTING EXCESSIVELY.
   ELEMENT SPIRAL-1.470 IS DISTORTING EXCESSIVELY.
   ELEMENT SPIRAL-1.471 IS DISTORTING EXCESSIVELY.
   ELEMENT SPIRAL-1.474 IS DISTORTING EXCESSIVELY.
   ELEMENT SPIRAL-1.475 IS DISTORTING EXCESSIVELY.
   ELEMENT SPIRAL-1.476 IS DISTORTING EXCESSIVELY.
   ELEMENT SPIRAL-1.478 IS DISTORTING EXCESSIVELY.
   ELEMENT SPIRAL-1.485 IS DISTORTING EXCESSIVELY.
   ELEMENT SPIRAL-1.488 IS DISTORTING EXCESSIVELY.
   ELEMENT SPIRAL-1.491 IS DISTORTING EXCESSIVELY.
   ELEMENT SPIRAL-1.492 IS DISTORTING EXCESSIVELY.
   ELEMENT SPIRAL-1.494 IS DISTORTING EXCESSIVELY.
   ELEMENT SPIRAL-1.495 IS DISTORTING EXCESSIVELY.
   ELEMENT SPIRAL-1.496 IS DISTORTING EXCESSIVELY.
   ELEMENT SPIRAL-1.501 IS DISTORTING EXCESSIVELY.
   ELEMENT SPIRAL-1.502 IS DISTORTING EXCESSIVELY.
   ELEMENT SPIRAL-1.503 IS DISTORTING EXCESSIVELY.
   ELEMENT SPIRAL-1.504 IS DISTORTING EXCESSIVELY.
   ELEMENT SPIRAL-1.507 IS DISTORTING EXCESSIVELY.
   ELEMENT SPIRAL-1.508 IS DISTORTING EXCESSIVELY.
   ELEMENT SPIRAL-1.509 IS DISTORTING EXCESSIVELY.
   ELEMENT SPIRAL-1.511 IS DISTORTING EXCESSIVELY.
   ELEMENT SPIRAL-1.515 IS DISTORTING EXCESSIVELY.
   ELEMENT SPIRAL-1.516 IS DISTORTING EXCESSIVELY.
   ELEMENT SPIRAL-1.517 IS DISTORTING EXCESSIVELY.
   ELEMENT SPIRAL-1.518 IS DISTORTING EXCESSIVELY.
   ELEMENT SPIRAL-1.521 IS DISTORTING EXCESSIVELY.
   ELEMENT SPIRAL-1.522 IS DISTORTING EXCESSIVELY.
   ELEMENT SPIRAL-1.523 IS DISTORTING EXCESSIVELY.
   ELEMENT SPIRAL-1.524 IS DISTORTING EXCESSIVELY.
   ELEMENT SPIRAL-1.526 IS DISTORTING EXCESSIVELY.
   ELEMENT SPIRAL-1.527 IS DISTORTING EXCESSIVELY.
   ELEMENT SPIRAL-1.528 IS DISTORTING EXCESSIVELY.
   ELEMENT SPIRAL-1.529 IS DISTORTING EXCESSIVELY.
   ELEMENT SPIRAL-1.530 IS DISTORTING EXCESSIVELY.
   ELEMENT SPIRAL-1.535 IS DISTORTING EXCESSIVELY.
   ELEMENT SPIRAL-1.536 IS DISTORTING EXCESSIVELY.
   ELEMENT SPIRAL-1.538 IS DISTORTING EXCESSIVELY.
   ELEMENT SPIRAL-1.539 IS DISTORTING EXCESSIVELY.
   ELEMENT SPIRAL-1.540 IS DISTORTING EXCESSIVELY.
   ELEMENT SPIRAL-1.542 IS DISTORTING EXCESSIVELY.
   ELEMENT SPIRAL-1.544 IS DISTORTING EXCESSIVELY.
   ELEMENT SPIRAL-1.545 IS DISTORTING EXCESSIVELY.
   ELEMENT SPIRAL-1.547 IS DISTORTING EXCESSIVELY.
   ELEMENT SPIRAL-1.548 IS DISTORTING EXCESSIVELY.
   ELEMENT SPIRAL-1.550 IS DISTORTING EXCESSIVELY.
   ELEMENT SPIRAL-1.555 IS DISTORTING EXCESSIVELY.
   ELEMENT SPIRAL-1.556 IS DISTORTING EXCESSIVELY.
   ELEMENT SPIRAL-1.557 IS DISTORTING EXCESSIVELY.
   ELEMENT SPIRAL-1.558 IS DISTORTING EXCESSIVELY.
   ELEMENT SPIRAL-1.562 IS DISTORTING EXCESSIVELY.
   ELEMENT SPIRAL-1.563 IS DISTORTING EXCESSIVELY.
   ELEMENT SPIRAL-1.565 IS DISTORTING EXCESSIVELY.
   ELEMENT SPIRAL-1.567 IS DISTORTING EXCESSIVELY.
   ELEMENT SPIRAL-1.569 IS DISTORTING EXCESSIVELY.
   ELEMENT SPIRAL-1.570 IS DISTORTING EXCESSIVELY.
   ELEMENT SPIRAL-1.572 IS DISTORTING EXCESSIVELY.
   ELEMENT SPIRAL-1.573 IS DISTORTING EXCESSIVELY.
   ELEMENT SPIRAL-1.574 IS DISTORTING EXCESSIVELY.
   ELEMENT SPIRAL-1.575 IS DISTORTING EXCESSIVELY.
   ELEMENT SPIRAL-1.576 IS DISTORTING EXCESSIVELY.
   ELEMENT SPIRAL-1.577 IS DISTORTING EXCESSIVELY.
   ELEMENT SPIRAL-1.578 IS DISTORTING EXCESSIVELY.
   ELEMENT SPIRAL-1.585 IS DISTORTING EXCESSIVELY.
   ELEMENT SPIRAL-1.586 IS DISTORTING EXCESSIVELY.
   ELEMENT SPIRAL-1.589 IS DISTORTING EXCESSIVELY.
   ELEMENT SPIRAL-1.590 IS DISTORTING EXCESSIVELY.
   ELEMENT SPIRAL-1.591 IS DISTORTING EXCESSIVELY.
   ELEMENT SPIRAL-1.593 IS DISTORTING EXCESSIVELY.
   ELEMENT SPIRAL-1.594 IS DISTORTING EXCESSIVELY.
   ELEMENT SPIRAL-1.599 IS DISTORTING EXCESSIVELY.
   ELEMENT SPIRAL-1.600 IS DISTORTING EXCESSIVELY.
   ELEMENT SPIRAL-1.601 IS DISTORTING EXCESSIVELY.
   ELEMENT SPIRAL-1.603 IS DISTORTING EXCESSIVELY.
   ELEMENT SPIRAL-1.607 IS DISTORTING EXCESSIVELY.
   ELEMENT SPIRAL-1.611 IS DISTORTING EXCESSIVELY.
   ELEMENT SPIRAL-1.613 IS DISTORTING EXCESSIVELY.
   ELEMENT SPIRAL-1.614 IS DISTORTING EXCESSIVELY.
   ELEMENT SPIRAL-1.615 IS DISTORTING EXCESSIVELY.
   ELEMENT SPIRAL-1.617 IS DISTORTING EXCESSIVELY.
   ELEMENT SPIRAL-1.618 IS DISTORTING EXCESSIVELY.
   ELEMENT SPIRAL-1.619 IS DISTORTING EXCESSIVELY.
   ELEMENT SPIRAL-1.620 IS DISTORTING EXCESSIVELY.
   ELEMENT SPIRAL-1.621 IS DISTORTING EXCESSIVELY.
   ELEMENT SPIRAL-1.622 IS DISTORTING EXCESSIVELY.
   ELEMENT SPIRAL-1.624 IS DISTORTING EXCESSIVELY.
   ELEMENT SPIRAL-1.626 IS DISTORTING EXCESSIVELY.
   ELEMENT SPIRAL-1.627 IS DISTORTING EXCESSIVELY.
   ELEMENT SPIRAL-1.633 IS DISTORTING EXCESSIVELY.
   ELEMENT SPIRAL-1.634 IS DISTORTING EXCESSIVELY.
   ELEMENT SPIRAL-1.640 IS DISTORTING EXCESSIVELY.
   ELEMENT SPIRAL-1.644 IS DISTORTING EXCESSIVELY.
   ELEMENT SPIRAL-1.649 IS DISTORTING EXCESSIVELY.
   ELEMENT SPIRAL-1.653 IS DISTORTING EXCESSIVELY.
   ELEMENT SPIRAL-1.654 IS DISTORTING EXCESSIVELY.
   ELEMENT SPIRAL-1.655 IS DISTORTING EXCESSIVELY.
   ELEMENT SPIRAL-1.666 IS DISTORTING EXCESSIVELY.
   ELEMENT SPIRAL-1.668 IS DISTORTING EXCESSIVELY.
   ELEMENT SPIRAL-1.672 IS DISTORTING EXCESSIVELY.
   ELEMENT SPIRAL-1.674 IS DISTORTING EXCESSIVELY.
   ELEMENT SPIRAL-1.676 IS DISTORTING EXCESSIVELY.
   ELEMENT SPIRAL-1.678 IS DISTORTING EXCESSIVELY.
   ELEMENT SPIRAL-1.679 IS DISTORTING EXCESSIVELY.
   ELEMENT SPIRAL-1.681 IS DISTORTING EXCESSIVELY.
   ELEMENT SPIRAL-1.682 IS DISTORTING EXCESSIVELY.
   ELEMENT SPIRAL-1.686 IS DISTORTING EXCESSIVELY.
   ELEMENT SPIRAL-1.687 IS DISTORTING EXCESSIVELY.
   ELEMENT SPIRAL-1.688 IS DISTORTING EXCESSIVELY.
   ELEMENT SPIRAL-1.690 IS DISTORTING EXCESSIVELY.
   ELEMENT SPIRAL-1.692 IS DISTORTING EXCESSIVELY.
   ELEMENT SPIRAL-1.694 IS DISTORTING EXCESSIVELY.
   ELEMENT SPIRAL-1.696 IS DISTORTING EXCESSIVELY.
   ELEMENT SPIRAL-1.697 IS DISTORTING EXCESSIVELY.
   ELEMENT SPIRAL-1.698 IS DISTORTING EXCESSIVELY.
   ELEMENT SPIRAL-1.699 IS DISTORTING EXCESSIVELY.
   ELEMENT SPIRAL-1.700 IS DISTORTING EXCESSIVELY.
   ELEMENT SPIRAL-1.703 IS DISTORTING EXCESSIVELY.
   ELEMENT SPIRAL-1.706 IS DISTORTING EXCESSIVELY.
   ELEMENT SPIRAL-1.710 IS DISTORTING EXCESSIVELY.
   ELEMENT SPIRAL-1.711 IS DISTORTING EXCESSIVELY.
   ELEMENT SPIRAL-1.712 IS DISTORTING EXCESSIVELY.
   ELEMENT SPIRAL-1.714 IS DISTORTING EXCESSIVELY.
   ELEMENT SPIRAL-1.715 IS DISTORTING EXCESSIVELY.
   ELEMENT SPIRAL-1.719 IS DISTORTING EXCESSIVELY.
   ELEMENT SPIRAL-1.721 IS DISTORTING EXCESSIVELY.
   ELEMENT SPIRAL-1.725 IS DISTORTING EXCESSIVELY.
   ELEMENT SPIRAL-1.728 IS DISTORTING EXCESSIVELY.
   ELEMENT SPIRAL-1.729 IS DISTORTING EXCESSIVELY.
   ELEMENT SPIRAL-1.730 IS DISTORTING EXCESSIVELY.
   ELEMENT SPIRAL-1.731 IS DISTORTING EXCESSIVELY.
   ELEMENT SPIRAL-1.732 IS DISTORTING EXCESSIVELY.
   ELEMENT SPIRAL-1.733 IS DISTORTING EXCESSIVELY.
   ELEMENT SPIRAL-1.735 IS DISTORTING EXCESSIVELY.
   ELEMENT SPIRAL-1.737 IS DISTORTING EXCESSIVELY.
   ELEMENT SPIRAL-1.738 IS DISTORTING EXCESSIVELY.
   ELEMENT SPIRAL-1.739 IS DISTORTING EXCESSIVELY.
   ELEMENT SPIRAL-1.740 IS DISTORTING EXCESSIVELY.
   ELEMENT SPIRAL-1.741 IS DISTORTING EXCESSIVELY.
   ELEMENT SPIRAL-1.742 IS DISTORTING EXCESSIVELY.
   ELEMENT SPIRAL-1.744 IS DISTORTING EXCESSIVELY.
   ELEMENT SPIRAL-1.745 IS DISTORTING EXCESSIVELY.
   ELEMENT SPIRAL-1.746 IS DISTORTING EXCESSIVELY.
   ELEMENT SPIRAL-1.747 IS DISTORTING EXCESSIVELY.
   ELEMENT SPIRAL-1.749 IS DISTORTING EXCESSIVELY.
   ELEMENT SPIRAL-1.750 IS DISTORTING EXCESSIVELY.
   ELEMENT SPIRAL-1.751 IS DISTORTING EXCESSIVELY.
   ELEMENT SPIRAL-1.753 IS DISTORTING EXCESSIVELY.
   ELEMENT SPIRAL-1.755 IS DISTORTING EXCESSIVELY.
   ELEMENT SPIRAL-1.756 IS DISTORTING EXCESSIVELY.
   ELEMENT SPIRAL-1.759 IS DISTORTING EXCESSIVELY.
   ELEMENT SPIRAL-1.761 IS DISTORTING EXCESSIVELY.
   ELEMENT SPIRAL-1.763 IS DISTORTING EXCESSIVELY.
   ELEMENT SPIRAL-1.764 IS DISTORTING EXCESSIVELY.
   ELEMENT SPIRAL-1.767 IS DISTORTING EXCESSIVELY.
   ELEMENT SPIRAL-1.768 IS DISTORTING EXCESSIVELY.
   ELEMENT SPIRAL-1.772 IS DISTORTING EXCESSIVELY.
   ELEMENT SPIRAL-1.775 IS DISTORTING EXCESSIVELY.
   ELEMENT SPIRAL-1.776 IS DISTORTING EXCESSIVELY.
   ELEMENT SPIRAL-1.784 IS DISTORTING EXCESSIVELY.
   ELEMENT SPIRAL-1.787 IS DISTORTING EXCESSIVELY.
   ELEMENT SPIRAL-1.788 IS DISTORTING EXCESSIVELY.
   ELEMENT SPIRAL-1.791 IS DISTORTING EXCESSIVELY.
   ELEMENT SPIRAL-1.796 IS DISTORTING EXCESSIVELY.
   ELEMENT SPIRAL-1.798 IS DISTORTING EXCESSIVELY.
   ELEMENT SPIRAL-1.799 IS DISTORTING EXCESSIVELY.
   ELEMENT SPIRAL-1.801 IS DISTORTING EXCESSIVELY.
   ELEMENT SPIRAL-1.802 IS DISTORTING EXCESSIVELY.
   ELEMENT SPIRAL-1.805 IS DISTORTING EXCESSIVELY.
   ELEMENT SPIRAL-1.806 IS DISTORTING EXCESSIVELY.
   ELEMENT SPIRAL-1.808 IS DISTORTING EXCESSIVELY.
   ELEMENT SPIRAL-1.814 IS DISTORTING EXCESSIVELY.
   ELEMENT SPIRAL-1.816 IS DISTORTING EXCESSIVELY.
   ELEMENT SPIRAL-1.819 IS DISTORTING EXCESSIVELY.
   ELEMENT SPIRAL-1.824 IS DISTORTING EXCESSIVELY.
   ELEMENT SPIRAL-1.825 IS DISTORTING EXCESSIVELY.
   ELEMENT SPIRAL-1.826 IS DISTORTING EXCESSIVELY.
   ELEMENT SPIRAL-1.827 IS DISTORTING EXCESSIVELY.
   ELEMENT SPIRAL-1.828 IS DISTORTING EXCESSIVELY.
   ELEMENT SPIRAL-1.829 IS DISTORTING EXCESSIVELY.
   ELEMENT SPIRAL-1.830 IS DISTORTING EXCESSIVELY.
   ELEMENT SPIRAL-1.831 IS DISTORTING EXCESSIVELY.
   ELEMENT SPIRAL-1.832 IS DISTORTING EXCESSIVELY.
   ELEMENT SPIRAL-1.834 IS DISTORTING EXCESSIVELY.
   ELEMENT SPIRAL-1.836 IS DISTORTING EXCESSIVELY.
   ELEMENT SPIRAL-1.837 IS DISTORTING EXCESSIVELY.
   ELEMENT SPIRAL-1.838 IS DISTORTING EXCESSIVELY.
   ELEMENT SPIRAL-1.839 IS DISTORTING EXCESSIVELY.
   ELEMENT SPIRAL-1.842 IS DISTORTING EXCESSIVELY.
   ELEMENT SPIRAL-1.843 IS DISTORTING EXCESSIVELY.
   ELEMENT SPIRAL-1.845 IS DISTORTING EXCESSIVELY.
   ELEMENT SPIRAL-1.847 IS DISTORTING EXCESSIVELY.
   ELEMENT SPIRAL-1.849 IS DISTORTING EXCESSIVELY.
   ELEMENT SPIRAL-1.851 IS DISTORTING EXCESSIVELY.
   ELEMENT SPIRAL-1.852 IS DISTORTING EXCESSIVELY.
   ELEMENT SPIRAL-1.854 IS DISTORTING EXCESSIVELY.
   ELEMENT SPIRAL-1.855 IS DISTORTING EXCESSIVELY.
   ELEMENT SPIRAL-1.856 IS DISTORTING EXCESSIVELY.
   ELEMENT SPIRAL-1.857 IS DISTORTING EXCESSIVELY.
   ELEMENT SPIRAL-1.859 IS DISTORTING EXCESSIVELY.
   ELEMENT SPIRAL-1.860 IS DISTORTING EXCESSIVELY.
   ELEMENT SPIRAL-1.863 IS DISTORTING EXCESSIVELY.
   ELEMENT SPIRAL-1.865 IS DISTORTING EXCESSIVELY.
   ELEMENT SPIRAL-1.867 IS DISTORTING EXCESSIVELY.
   ELEMENT SPIRAL-1.868 IS DISTORTING EXCESSIVELY.
   ELEMENT SPIRAL-1.869 IS DISTORTING EXCESSIVELY.
   ELEMENT SPIRAL-1.870 IS DISTORTING EXCESSIVELY.
   ELEMENT SPIRAL-1.872 IS DISTORTING EXCESSIVELY.
   ELEMENT SPIRAL-1.875 IS DISTORTING EXCESSIVELY.
   ELEMENT SPIRAL-1.878 IS DISTORTING EXCESSIVELY.
   ELEMENT SPIRAL-1.879 IS DISTORTING EXCESSIVELY.
   ELEMENT SPIRAL-1.881 IS DISTORTING EXCESSIVELY.
   ELEMENT SPIRAL-1.882 IS DISTORTING EXCESSIVELY.
   ELEMENT SPIRAL-1.883 IS DISTORTING EXCESSIVELY.
   ELEMENT SPIRAL-1.884 IS DISTORTING EXCESSIVELY.
   ELEMENT SPIRAL-1.885 IS DISTORTING EXCESSIVELY.
   ELEMENT SPIRAL-1.886 IS DISTORTING EXCESSIVELY.
   ELEMENT SPIRAL-1.890 IS DISTORTING EXCESSIVELY.
   ELEMENT SPIRAL-1.894 IS DISTORTING EXCESSIVELY.
   ELEMENT SPIRAL-1.895 IS DISTORTING EXCESSIVELY.
   ELEMENT SPIRAL-1.897 IS DISTORTING EXCESSIVELY.
   ELEMENT SPIRAL-1.899 IS DISTORTING EXCESSIVELY.
   ELEMENT SPIRAL-1.901 IS DISTORTING EXCESSIVELY.
   ELEMENT SPIRAL-1.903 IS DISTORTING EXCESSIVELY.
   ELEMENT SPIRAL-1.904 IS DISTORTING EXCESSIVELY.
   ELEMENT SPIRAL-1.905 IS DISTORTING EXCESSIVELY.
   ELEMENT SPIRAL-1.907 IS DISTORTING EXCESSIVELY.
   ELEMENT SPIRAL-1.909 IS DISTORTING EXCESSIVELY.
   ELEMENT SPIRAL-1.910 IS DISTORTING EXCESSIVELY.
   ELEMENT SPIRAL-1.911 IS DISTORTING EXCESSIVELY.
   ELEMENT SPIRAL-1.912 IS DISTORTING EXCESSIVELY.
   ELEMENT SPIRAL-1.913 IS DISTORTING EXCESSIVELY.
   ELEMENT SPIRAL-1.916 IS DISTORTING EXCESSIVELY.
   ELEMENT SPIRAL-1.918 IS DISTORTING EXCESSIVELY.
   ELEMENT SPIRAL-1.919 IS DISTORTING EXCESSIVELY.
   ELEMENT SPIRAL-1.920 IS DISTORTING EXCESSIVELY.
   ELEMENT SPIRAL-1.921 IS DISTORTING EXCESSIVELY.
   ELEMENT SPIRAL-1.922 IS DISTORTING EXCESSIVELY.
   ELEMENT SPIRAL-1.925 IS DISTORTING EXCESSIVELY.
   ELEMENT SPIRAL-1.929 IS DISTORTING EXCESSIVELY.
   ELEMENT SPIRAL-1.933 IS DISTORTING EXCESSIVELY.
   ELEMENT SPIRAL-1.935 IS DISTORTING EXCESSIVELY.
   ELEMENT SPIRAL-1.937 IS DISTORTING EXCESSIVELY.
   ELEMENT SPIRAL-1.939 IS DISTORTING EXCESSIVELY.
   ELEMENT SPIRAL-1.944 IS DISTORTING EXCESSIVELY.
   ELEMENT SPIRAL-1.946 IS DISTORTING EXCESSIVELY.
   ELEMENT SPIRAL-1.947 IS DISTORTING EXCESSIVELY.
   ELEMENT SPIRAL-1.949 IS DISTORTING EXCESSIVELY.
   ELEMENT SPIRAL-1.951 IS DISTORTING EXCESSIVELY.
   ELEMENT SPIRAL-1.952 IS DISTORTING EXCESSIVELY.
   ELEMENT SPIRAL-1.955 IS DISTORTING EXCESSIVELY.
   ELEMENT SPIRAL-1.956 IS DISTORTING EXCESSIVELY.
   ELEMENT SPIRAL-1.957 IS DISTORTING EXCESSIVELY.
   ELEMENT SPIRAL-1.963 IS DISTORTING EXCESSIVELY.
   ELEMENT SPIRAL-1.969 IS DISTORTING EXCESSIVELY.
   ELEMENT SPIRAL-1.971 IS DISTORTING EXCESSIVELY.
   ELEMENT SPIRAL-1.972 IS DISTORTING EXCESSIVELY.
   ELEMENT SPIRAL-1.973 IS DISTORTING EXCESSIVELY.
   ELEMENT SPIRAL-1.974 IS DISTORTING EXCESSIVELY.
   ELEMENT SPIRAL-1.975 IS DISTORTING EXCESSIVELY.
   ELEMENT SPIRAL-1.976 IS DISTORTING EXCESSIVELY.
   ELEMENT SPIRAL-1.977 IS DISTORTING EXCESSIVELY.
   ELEMENT SPIRAL-1.978 IS DISTORTING EXCESSIVELY.
   ELEMENT SPIRAL-1.980 IS DISTORTING EXCESSIVELY.
   ELEMENT SPIRAL-1.982 IS DISTORTING EXCESSIVELY.
   ELEMENT SPIRAL-1.983 IS DISTORTING EXCESSIVELY.
   ELEMENT SPIRAL-1.984 IS DISTORTING EXCESSIVELY.
   ELEMENT SPIRAL-1.986 IS DISTORTING EXCESSIVELY.
   ELEMENT SPIRAL-1.987 IS DISTORTING EXCESSIVELY.
   ELEMENT SPIRAL-1.988 IS DISTORTING EXCESSIVELY.
   ELEMENT SPIRAL-1.990 IS DISTORTING EXCESSIVELY.
   ELEMENT SPIRAL-1.992 IS DISTORTING EXCESSIVELY.
   ELEMENT SPIRAL-1.998 IS DISTORTING EXCESSIVELY.
   ELEMENT SPIRAL-1.999 IS DISTORTING EXCESSIVELY.
   ELEMENT SPIRAL-1.1001 IS DISTORTING EXCESSIVELY.
   ELEMENT SPIRAL-1.1003 IS DISTORTING EXCESSIVELY.
   ELEMENT SPIRAL-1.1006 IS DISTORTING EXCESSIVELY.
   ELEMENT SPIRAL-1.1008 IS DISTORTING EXCESSIVELY.
   ELEMENT SPIRAL-1.1010 IS DISTORTING EXCESSIVELY.
   ELEMENT SPIRAL-1.1011 IS DISTORTING EXCESSIVELY.
   ELEMENT SPIRAL-1.1014 IS DISTORTING EXCESSIVELY.
   ELEMENT SPIRAL-1.1016 IS DISTORTING EXCESSIVELY.
   ELEMENT SPIRAL-1.1017 IS DISTORTING EXCESSIVELY.
   ELEMENT SPIRAL-1.1018 IS DISTORTING EXCESSIVELY.
   ELEMENT SPIRAL-1.1019 IS DISTORTING EXCESSIVELY.
   ELEMENT SPIRAL-1.1021 IS DISTORTING EXCESSIVELY.
   ELEMENT SPIRAL-1.1023 IS DISTORTING EXCESSIVELY.
   ELEMENT SPIRAL-1.1027 IS DISTORTING EXCESSIVELY.
   ELEMENT SPIRAL-1.1028 IS DISTORTING EXCESSIVELY.
   ELEMENT SPIRAL-1.1029 IS DISTORTING EXCESSIVELY.
   ELEMENT SPIRAL-1.1030 IS DISTORTING EXCESSIVELY.
   ELEMENT SPIRAL-1.1032 IS DISTORTING EXCESSIVELY.
   ELEMENT SPIRAL-1.1038 IS DISTORTING EXCESSIVELY.
   ELEMENT SPIRAL-1.1040 IS DISTORTING EXCESSIVELY.
   ELEMENT SPIRAL-1.1043 IS DISTORTING EXCESSIVELY.
   ELEMENT SPIRAL-1.1044 IS DISTORTING EXCESSIVELY.
   ELEMENT SPIRAL-1.1048 IS DISTORTING EXCESSIVELY.
   ELEMENT SPIRAL-1.1049 IS DISTORTING EXCESSIVELY.
   ELEMENT SPIRAL-1.1050 IS DISTORTING EXCESSIVELY.
   ELEMENT SPIRAL-1.1051 IS DISTORTING EXCESSIVELY.
   ELEMENT SPIRAL-1.1053 IS DISTORTING EXCESSIVELY.
   ELEMENT SPIRAL-1.1055 IS DISTORTING EXCESSIVELY.
   ELEMENT SPIRAL-1.1056 IS DISTORTING EXCESSIVELY.
   ELEMENT SPIRAL-1.1057 IS DISTORTING EXCESSIVELY.
   ELEMENT SPIRAL-1.1060 IS DISTORTING EXCESSIVELY.
   ELEMENT SPIRAL-1.1061 IS DISTORTING EXCESSIVELY.
   ELEMENT SPIRAL-1.1063 IS DISTORTING EXCESSIVELY.
   ELEMENT SPIRAL-1.1066 IS DISTORTING EXCESSIVELY.
   ELEMENT SPIRAL-1.1067 IS DISTORTING EXCESSIVELY.
   ELEMENT SPIRAL-1.1070 IS DISTORTING EXCESSIVELY.
   ELEMENT SPIRAL-1.1071 IS DISTORTING EXCESSIVELY.
   ELEMENT SPIRAL-1.1072 IS DISTORTING EXCESSIVELY.
   ELEMENT SPIRAL-1.1073 IS DISTORTING EXCESSIVELY.
   ELEMENT SPIRAL-1.1074 IS DISTORTING EXCESSIVELY.
   ELEMENT SPIRAL-1.1076 IS DISTORTING EXCESSIVELY.
   ELEMENT SPIRAL-1.1077 IS DISTORTING EXCESSIVELY.
   ELEMENT SPIRAL-1.1078 IS DISTORTING EXCESSIVELY.
   ELEMENT SPIRAL-1.1080 IS DISTORTING EXCESSIVELY.
   ELEMENT SPIRAL-1.1083 IS DISTORTING EXCESSIVELY.
   ELEMENT SPIRAL-1.1086 IS DISTORTING EXCESSIVELY.
   ELEMENT SPIRAL-1.1087 IS DISTORTING EXCESSIVELY.
   ELEMENT SPIRAL-1.1088 IS DISTORTING EXCESSIVELY.
   ELEMENT SPIRAL-1.1089 IS DISTORTING EXCESSIVELY.
   ELEMENT SPIRAL-1.1093 IS DISTORTING EXCESSIVELY.
   ELEMENT SPIRAL-1.1094 IS DISTORTING EXCESSIVELY.
   ELEMENT SPIRAL-1.1097 IS DISTORTING EXCESSIVELY.
   ELEMENT SPIRAL-1.1099 IS DISTORTING EXCESSIVELY.
   ELEMENT SPIRAL-1.1100 IS DISTORTING EXCESSIVELY.
   ELEMENT SPIRAL-1.1102 IS DISTORTING EXCESSIVELY.
   ELEMENT SPIRAL-1.1103 IS DISTORTING EXCESSIVELY.
   ELEMENT SPIRAL-1.1105 IS DISTORTING EXCESSIVELY.
   ELEMENT SPIRAL-1.1106 IS DISTORTING EXCESSIVELY.
   ELEMENT SPIRAL-1.1109 IS DISTORTING EXCESSIVELY.
   ELEMENT SPIRAL-1.1110 IS DISTORTING EXCESSIVELY.
   ELEMENT SPIRAL-1.1112 IS DISTORTING EXCESSIVELY.
   ELEMENT SPIRAL-1.1113 IS DISTORTING EXCESSIVELY.
   ELEMENT SPIRAL-1.1114 IS DISTORTING EXCESSIVELY.
   ELEMENT SPIRAL-1.1117 IS DISTORTING EXCESSIVELY.
   ELEMENT SPIRAL-1.1120 IS DISTORTING EXCESSIVELY.
   ELEMENT SPIRAL-1.1122 IS DISTORTING EXCESSIVELY.
   ELEMENT SPIRAL-1.1123 IS DISTORTING EXCESSIVELY.
   ELEMENT SPIRAL-1.1124 IS DISTORTING EXCESSIVELY.
   ELEMENT SPIRAL-1.1127 IS DISTORTING EXCESSIVELY.
   ELEMENT SPIRAL-1.1128 IS DISTORTING EXCESSIVELY.
   ELEMENT SPIRAL-1.1131 IS DISTORTING EXCESSIVELY.
   ELEMENT SPIRAL-1.1132 IS DISTORTING EXCESSIVELY.
   ELEMENT SPIRAL-1.1134 IS DISTORTING EXCESSIVELY.
   ELEMENT SPIRAL-1.1135 IS DISTORTING EXCESSIVELY.
   ELEMENT SPIRAL-1.1137 IS DISTORTING EXCESSIVELY.
   ELEMENT SPIRAL-1.1139 IS DISTORTING EXCESSIVELY.
   ELEMENT SPIRAL-1.1141 IS DISTORTING EXCESSIVELY.
   ELEMENT SPIRAL-1.1143 IS DISTORTING EXCESSIVELY.
   ELEMENT SPIRAL-1.1145 IS DISTORTING EXCESSIVELY.
   ELEMENT SPIRAL-1.1148 IS DISTORTING EXCESSIVELY.
   ELEMENT SPIRAL-1.1149 IS DISTORTING EXCESSIVELY.
   ELEMENT SPIRAL-1.1150 IS DISTORTING EXCESSIVELY.
   ELEMENT SPIRAL-1.1155 IS DISTORTING EXCESSIVELY.
   ELEMENT SPIRAL-1.1157 IS DISTORTING EXCESSIVELY.
   ELEMENT SPIRAL-1.1159 IS DISTORTING EXCESSIVELY.
   ELEMENT SPIRAL-1.1160 IS DISTORTING EXCESSIVELY.
   ELEMENT SPIRAL-1.1162 IS DISTORTING EXCESSIVELY.
   ELEMENT SPIRAL-1.1166 IS DISTORTING EXCESSIVELY.
   ELEMENT SPIRAL-1.1168 IS DISTORTING EXCESSIVELY.
   ELEMENT SPIRAL-1.1169 IS DISTORTING EXCESSIVELY.
   ELEMENT SPIRAL-1.1171 IS DISTORTING EXCESSIVELY.
   ELEMENT SPIRAL-1.1173 IS DISTORTING EXCESSIVELY.
   ELEMENT SPIRAL-1.1174 IS DISTORTING EXCESSIVELY.
   ELEMENT SPIRAL-1.1178 IS DISTORTING EXCESSIVELY.
   ELEMENT SPIRAL-1.1179 IS DISTORTING EXCESSIVELY.
   ELEMENT SPIRAL-1.1180 IS DISTORTING EXCESSIVELY.
   ELEMENT SPIRAL-1.1181 IS DISTORTING EXCESSIVELY.
   ELEMENT SPIRAL-1.1182 IS DISTORTING EXCESSIVELY.
   ELEMENT SPIRAL-1.1185 IS DISTORTING EXCESSIVELY.
   ELEMENT SPIRAL-1.1186 IS DISTORTING EXCESSIVELY.
   ELEMENT SPIRAL-1.1188 IS DISTORTING EXCESSIVELY.
   ELEMENT SPIRAL-1.1189 IS DISTORTING EXCESSIVELY.
   ELEMENT SPIRAL-1.1191 IS DISTORTING EXCESSIVELY.
   ELEMENT SPIRAL-1.1193 IS DISTORTING EXCESSIVELY.
   ELEMENT SPIRAL-1.1194 IS DISTORTING EXCESSIVELY.
   ELEMENT SPIRAL-1.1195 IS DISTORTING EXCESSIVELY.
   ELEMENT SPIRAL-1.1196 IS DISTORTING EXCESSIVELY.
   ELEMENT SPIRAL-1.1198 IS DISTORTING EXCESSIVELY.
   ELEMENT SPIRAL-1.1199 IS DISTORTING EXCESSIVELY.
   ELEMENT SPIRAL-1.1200 IS DISTORTING EXCESSIVELY.
   ELEMENT SPIRAL-1.1202 IS DISTORTING EXCESSIVELY.
   ELEMENT SPIRAL-1.1203 IS DISTORTING EXCESSIVELY.
   ELEMENT SPIRAL-1.1205 IS DISTORTING EXCESSIVELY.
   ELEMENT SPIRAL-1.1207 IS DISTORTING EXCESSIVELY.
   ELEMENT SPIRAL-1.1208 IS DISTORTING EXCESSIVELY.
   ELEMENT SPIRAL-1.1209 IS DISTORTING EXCESSIVELY.
   ELEMENT SPIRAL-1.1210 IS DISTORTING EXCESSIVELY.
   ELEMENT SPIRAL-1.1212 IS DISTORTING EXCESSIVELY.
   ELEMENT SPIRAL-1.1216 IS DISTORTING EXCESSIVELY.
   ELEMENT SPIRAL-1.1217 IS DISTORTING EXCESSIVELY.
   ELEMENT SPIRAL-1.1219 IS DISTORTING EXCESSIVELY.
   ELEMENT SPIRAL-1.1220 IS DISTORTING EXCESSIVELY.
   ELEMENT SPIRAL-1.1224 IS DISTORTING EXCESSIVELY.
   ELEMENT SPIRAL-1.1225 IS DISTORTING EXCESSIVELY.
   ELEMENT SPIRAL-1.1227 IS DISTORTING EXCESSIVELY.
   ELEMENT SPIRAL-1.1228 IS DISTORTING EXCESSIVELY.
   ELEMENT SPIRAL-1.1230 IS DISTORTING EXCESSIVELY.
   ELEMENT SPIRAL-1.1232 IS DISTORTING EXCESSIVELY.
   ELEMENT SPIRAL-1.1233 IS DISTORTING EXCESSIVELY.
   ELEMENT SPIRAL-1.1234 IS DISTORTING EXCESSIVELY.
   ELEMENT SPIRAL-1.1236 IS DISTORTING EXCESSIVELY.
   ELEMENT SPIRAL-1.1237 IS DISTORTING EXCESSIVELY.
   ELEMENT SPIRAL-1.1238 IS DISTORTING EXCESSIVELY.
   ELEMENT SPIRAL-1.1239 IS DISTORTING EXCESSIVELY.
   ELEMENT SPIRAL-1.1246 IS DISTORTING EXCESSIVELY.
   ELEMENT SPIRAL-1.1248 IS DISTORTING EXCESSIVELY.
   ELEMENT SPIRAL-1.1249 IS DISTORTING EXCESSIVELY.
   ELEMENT SPIRAL-1.1252 IS DISTORTING EXCESSIVELY.
   ELEMENT SPIRAL-1.1253 IS DISTORTING EXCESSIVELY.
   ELEMENT SPIRAL-1.1259 IS DISTORTING EXCESSIVELY.
   ELEMENT SPIRAL-1.1260 IS DISTORTING EXCESSIVELY.
   ELEMENT SPIRAL-1.1262 IS DISTORTING EXCESSIVELY.
   ELEMENT SPIRAL-1.1264 IS DISTORTING EXCESSIVELY.
   ELEMENT SPIRAL-1.1265 IS DISTORTING EXCESSIVELY.
   ELEMENT SPIRAL-1.1266 IS DISTORTING EXCESSIVELY.
   ELEMENT SPIRAL-1.1267 IS DISTORTING EXCESSIVELY.
   ELEMENT SPIRAL-1.1269 IS DISTORTING EXCESSIVELY.
   ELEMENT SPIRAL-1.1270 IS DISTORTING EXCESSIVELY.
   ELEMENT SPIRAL-1.1273 IS DISTORTING EXCESSIVELY.
   ELEMENT SPIRAL-1.1274 IS DISTORTING EXCESSIVELY.
   ELEMENT SPIRAL-1.1275 IS DISTORTING EXCESSIVELY.
   ELEMENT SPIRAL-1.1281 IS DISTORTING EXCESSIVELY.
   ELEMENT SPIRAL-1.1282 IS DISTORTING EXCESSIVELY.
   ELEMENT SPIRAL-1.1285 IS DISTORTING EXCESSIVELY.
   ELEMENT SPIRAL-1.1286 IS DISTORTING EXCESSIVELY.
   ELEMENT SPIRAL-1.1287 IS DISTORTING EXCESSIVELY.
   ELEMENT SPIRAL-1.1288 IS DISTORTING EXCESSIVELY.
   ELEMENT SPIRAL-1.1289 IS DISTORTING EXCESSIVELY.
   ELEMENT SPIRAL-1.1291 IS DISTORTING EXCESSIVELY.
   ELEMENT SPIRAL-1.1292 IS DISTORTING EXCESSIVELY.
   ELEMENT SPIRAL-1.1293 IS DISTORTING EXCESSIVELY.
   ELEMENT SPIRAL-1.1294 IS DISTORTING EXCESSIVELY.
   ELEMENT SPIRAL-1.1297 IS DISTORTING EXCESSIVELY.
   ELEMENT SPIRAL-1.1299 IS DISTORTING EXCESSIVELY.
   ELEMENT SPIRAL-1.1300 IS DISTORTING EXCESSIVELY.
   ELEMENT SPIRAL-1.1301 IS DISTORTING EXCESSIVELY.
   ELEMENT SPIRAL-1.1306 IS DISTORTING EXCESSIVELY.
   ELEMENT SPIRAL-1.1307 IS DISTORTING EXCESSIVELY.
   ELEMENT SPIRAL-1.1308 IS DISTORTING EXCESSIVELY.
   ELEMENT SPIRAL-1.1312 IS DISTORTING EXCESSIVELY.
   ELEMENT SPIRAL-1.1313 IS DISTORTING EXCESSIVELY.
   ELEMENT SPIRAL-1.1314 IS DISTORTING EXCESSIVELY.
   ELEMENT SPIRAL-1.1318 IS DISTORTING EXCESSIVELY.
   ELEMENT SPIRAL-1.1319 IS DISTORTING EXCESSIVELY.
   ELEMENT SPIRAL-1.1320 IS DISTORTING EXCESSIVELY.
   ELEMENT SPIRAL-1.1321 IS DISTORTING EXCESSIVELY.
   ELEMENT SPIRAL-1.1322 IS DISTORTING EXCESSIVELY.
   ELEMENT SPIRAL-1.1323 IS DISTORTING EXCESSIVELY.
   ELEMENT SPIRAL-1.1329 IS DISTORTING EXCESSIVELY.
   ELEMENT SPIRAL-1.1330 IS DISTORTING EXCESSIVELY.
   ELEMENT SPIRAL-1.1333 IS DISTORTING EXCESSIVELY.
   ELEMENT SPIRAL-1.1334 IS DISTORTING EXCESSIVELY.
   ELEMENT SPIRAL-1.1336 IS DISTORTING EXCESSIVELY.
   ELEMENT SPIRAL-1.1339 IS DISTORTING EXCESSIVELY.
   ELEMENT SPIRAL-1.1341 IS DISTORTING EXCESSIVELY.
   ELEMENT SPIRAL-1.1343 IS DISTORTING EXCESSIVELY.
   ELEMENT SPIRAL-1.1344 IS DISTORTING EXCESSIVELY.
   ELEMENT SPIRAL-1.1345 IS DISTORTING EXCESSIVELY.
   ELEMENT SPIRAL-1.1346 IS DISTORTING EXCESSIVELY.
   ELEMENT SPIRAL-1.1347 IS DISTORTING EXCESSIVELY.
   ELEMENT SPIRAL-1.1350 IS DISTORTING EXCESSIVELY.
   ELEMENT SPIRAL-1.1351 IS DISTORTING EXCESSIVELY.
   ELEMENT SPIRAL-1.1355 IS DISTORTING EXCESSIVELY.
   ELEMENT SPIRAL-1.1356 IS DISTORTING EXCESSIVELY.
   ELEMENT SPIRAL-1.1357 IS DISTORTING EXCESSIVELY.
   ELEMENT SPIRAL-1.1358 IS DISTORTING EXCESSIVELY.
   ELEMENT SPIRAL-1.1360 IS DISTORTING EXCESSIVELY.
   ELEMENT SPIRAL-1.1361 IS DISTORTING EXCESSIVELY.
   ELEMENT SPIRAL-1.1362 IS DISTORTING EXCESSIVELY.
   ELEMENT SPIRAL-1.1363 IS DISTORTING EXCESSIVELY.
   ELEMENT SPIRAL-1.1364 IS DISTORTING EXCESSIVELY.
   ELEMENT SPIRAL-1.1368 IS DISTORTING EXCESSIVELY.
   ELEMENT SPIRAL-1.1369 IS DISTORTING EXCESSIVELY.
   ELEMENT SPIRAL-1.1370 IS DISTORTING EXCESSIVELY.
   ELEMENT SPIRAL-1.1371 IS DISTORTING EXCESSIVELY.
   ELEMENT SPIRAL-1.1375 IS DISTORTING EXCESSIVELY.
   ELEMENT SPIRAL-1.1376 IS DISTORTING EXCESSIVELY.
   ELEMENT SPIRAL-1.1378 IS DISTORTING EXCESSIVELY.
   ELEMENT SPIRAL-1.1379 IS DISTORTING EXCESSIVELY.
   ELEMENT SPIRAL-1.1381 IS DISTORTING EXCESSIVELY.
   ELEMENT SPIRAL-1.1382 IS DISTORTING EXCESSIVELY.
   ELEMENT SPIRAL-1.1385 IS DISTORTING EXCESSIVELY.
   ELEMENT SPIRAL-1.1386 IS DISTORTING EXCESSIVELY.
   ELEMENT SPIRAL-1.1390 IS DISTORTING EXCESSIVELY.
   ELEMENT SPIRAL-1.1391 IS DISTORTING EXCESSIVELY.
   ELEMENT SPIRAL-1.1393 IS DISTORTING EXCESSIVELY.
   ELEMENT SPIRAL-1.1394 IS DISTORTING EXCESSIVELY.
   ELEMENT SPIRAL-1.1398 IS DISTORTING EXCESSIVELY.
   ELEMENT SPIRAL-1.1402 IS DISTORTING EXCESSIVELY.
   ELEMENT SPIRAL-1.1405 IS DISTORTING EXCESSIVELY.
   ELEMENT SPIRAL-1.1407 IS DISTORTING EXCESSIVELY.
   ELEMENT SPIRAL-1.1410 IS DISTORTING EXCESSIVELY.
   ELEMENT SPIRAL-1.1411 IS DISTORTING EXCESSIVELY.
   ELEMENT SPIRAL-1.1414 IS DISTORTING EXCESSIVELY.
   ELEMENT SPIRAL-1.1415 IS DISTORTING EXCESSIVELY.
   ELEMENT SPIRAL-1.1417 IS DISTORTING EXCESSIVELY.
   ELEMENT SPIRAL-1.1418 IS DISTORTING EXCESSIVELY.
   ELEMENT SPIRAL-1.1420 IS DISTORTING EXCESSIVELY.
   ELEMENT SPIRAL-1.1424 IS DISTORTING EXCESSIVELY.
   ELEMENT SPIRAL-1.1425 IS DISTORTING EXCESSIVELY.
   ELEMENT SPIRAL-1.1430 IS DISTORTING EXCESSIVELY.
   ELEMENT SPIRAL-1.1431 IS DISTORTING EXCESSIVELY.
   ELEMENT SPIRAL-1.1432 IS DISTORTING EXCESSIVELY.
   ELEMENT SPIRAL-1.1434 IS DISTORTING EXCESSIVELY.
   ELEMENT SPIRAL-1.1435 IS DISTORTING EXCESSIVELY.
   ELEMENT SPIRAL-1.1436 IS DISTORTING EXCESSIVELY.
   ELEMENT SPIRAL-1.1438 IS DISTORTING EXCESSIVELY.
   ELEMENT SPIRAL-1.1441 IS DISTORTING EXCESSIVELY.
   ELEMENT SPIRAL-1.1445 IS DISTORTING EXCESSIVELY.
   ELEMENT SPIRAL-1.1448 IS DISTORTING EXCESSIVELY.
   ELEMENT SPIRAL-1.1451 IS DISTORTING EXCESSIVELY.
   ELEMENT SPIRAL-1.1452 IS DISTORTING EXCESSIVELY.
   ELEMENT SPIRAL-1.1453 IS DISTORTING EXCESSIVELY.
   ELEMENT SPIRAL-1.1454 IS DISTORTING EXCESSIVELY.
   ELEMENT SPIRAL-1.1457 IS DISTORTING EXCESSIVELY.
   ELEMENT SPIRAL-1.1458 IS DISTORTING EXCESSIVELY.
   ELEMENT SPIRAL-1.1459 IS DISTORTING EXCESSIVELY.
   ELEMENT SPIRAL-1.1461 IS DISTORTING EXCESSIVELY.
   ELEMENT SPIRAL-1.1462 IS DISTORTING EXCESSIVELY.
   ELEMENT SPIRAL-1.1464 IS DISTORTING EXCESSIVELY.
   ELEMENT SPIRAL-1.1465 IS DISTORTING EXCESSIVELY.
   ELEMENT SPIRAL-1.1470 IS DISTORTING EXCESSIVELY.
   ELEMENT SPIRAL-1.1471 IS DISTORTING EXCESSIVELY.
   ELEMENT SPIRAL-1.1475 IS DISTORTING EXCESSIVELY.
   ELEMENT SPIRAL-1.1476 IS DISTORTING EXCESSIVELY.
   ELEMENT SPIRAL-1.1477 IS DISTORTING EXCESSIVELY.
   ELEMENT SPIRAL-1.1479 IS DISTORTING EXCESSIVELY.
   ELEMENT SPIRAL-1.1480 IS DISTORTING EXCESSIVELY.
   ELEMENT SPIRAL-1.1484 IS DISTORTING EXCESSIVELY.
   ELEMENT SPIRAL-1.1487 IS DISTORTING EXCESSIVELY.
   ELEMENT SPIRAL-1.1489 IS DISTORTING EXCESSIVELY.
   ELEMENT SPIRAL-1.1491 IS DISTORTING EXCESSIVELY.
   ELEMENT SPIRAL-1.1492 IS DISTORTING EXCESSIVELY.
   ELEMENT SPIRAL-1.1493 IS DISTORTING EXCESSIVELY.
   ELEMENT SPIRAL-1.1494 IS DISTORTING EXCESSIVELY.
   ELEMENT SPIRAL-1.1495 IS DISTORTING EXCESSIVELY.
   ELEMENT SPIRAL-1.1496 IS DISTORTING EXCESSIVELY.
   ELEMENT SPIRAL-1.1498 IS DISTORTING EXCESSIVELY.
   ELEMENT SPIRAL-1.1499 IS DISTORTING EXCESSIVELY.
   ELEMENT SPIRAL-1.1502 IS DISTORTING EXCESSIVELY.
   ELEMENT SPIRAL-1.1506 IS DISTORTING EXCESSIVELY.
   ELEMENT SPIRAL-1.1508 IS DISTORTING EXCESSIVELY.
   ELEMENT SPIRAL-1.1509 IS DISTORTING EXCESSIVELY.
   ELEMENT SPIRAL-1.1511 IS DISTORTING EXCESSIVELY.
   ELEMENT SPIRAL-1.1512 IS DISTORTING EXCESSIVELY.
   ELEMENT SPIRAL-1.1513 IS DISTORTING EXCESSIVELY.
   ELEMENT SPIRAL-1.1516 IS DISTORTING EXCESSIVELY.
   ELEMENT SPIRAL-1.1517 IS DISTORTING EXCESSIVELY.
   ELEMENT SPIRAL-1.1519 IS DISTORTING EXCESSIVELY.
   ELEMENT SPIRAL-1.1520 IS DISTORTING EXCESSIVELY.
   ELEMENT SPIRAL-1.1521 IS DISTORTING EXCESSIVELY.
   ELEMENT SPIRAL-1.1522 IS DISTORTING EXCESSIVELY.
   ELEMENT SPIRAL-1.1523 IS DISTORTING EXCESSIVELY.
   ELEMENT SPIRAL-1.1524 IS DISTORTING EXCESSIVELY.
   ELEMENT SPIRAL-1.1525 IS DISTORTING EXCESSIVELY.
   ELEMENT SPIRAL-1.1527 IS DISTORTING EXCESSIVELY.
   ELEMENT SPIRAL-1.1532 IS DISTORTING EXCESSIVELY.
   ELEMENT SPIRAL-1.1533 IS DISTORTING EXCESSIVELY.
   ELEMENT SPIRAL-1.1534 IS DISTORTING EXCESSIVELY.
   ELEMENT SPIRAL-1.1535 IS DISTORTING EXCESSIVELY.
   ELEMENT SPIRAL-1.1536 IS DISTORTING EXCESSIVELY.
   ELEMENT SPIRAL-1.1537 IS DISTORTING EXCESSIVELY.
   ELEMENT SPIRAL-1.1539 IS DISTORTING EXCESSIVELY.
   ELEMENT SPIRAL-1.1540 IS DISTORTING EXCESSIVELY.
   ELEMENT SPIRAL-1.1541 IS DISTORTING EXCESSIVELY.
   ELEMENT SPIRAL-1.1542 IS DISTORTING EXCESSIVELY.
   ELEMENT SPIRAL-1.1544 IS DISTORTING EXCESSIVELY.
   ELEMENT SPIRAL-1.1546 IS DISTORTING EXCESSIVELY.
   ELEMENT SPIRAL-1.1550 IS DISTORTING EXCESSIVELY.
   ELEMENT SPIRAL-1.1553 IS DISTORTING EXCESSIVELY.
   ELEMENT SPIRAL-1.1554 IS DISTORTING EXCESSIVELY.
   ELEMENT SPIRAL-1.1555 IS DISTORTING EXCESSIVELY.
   ELEMENT SPIRAL-1.1556 IS DISTORTING EXCESSIVELY.
   ELEMENT SPIRAL-1.1560 IS DISTORTING EXCESSIVELY.
   ELEMENT SPIRAL-1.1561 IS DISTORTING EXCESSIVELY.
   ELEMENT SPIRAL-1.1564 IS DISTORTING EXCESSIVELY.
   ELEMENT SPIRAL-1.1565 IS DISTORTING EXCESSIVELY.
   ELEMENT SPIRAL-1.1568 IS DISTORTING EXCESSIVELY.
   ELEMENT SPIRAL-1.1571 IS DISTORTING EXCESSIVELY.
   ELEMENT SPIRAL-1.1574 IS DISTORTING EXCESSIVELY.
   ELEMENT SPIRAL-1.1575 IS DISTORTING EXCESSIVELY.
   ELEMENT SPIRAL-1.1580 IS DISTORTING EXCESSIVELY.
   ELEMENT SPIRAL-1.1585 IS DISTORTING EXCESSIVELY.
   ELEMENT SPIRAL-1.1588 IS DISTORTING EXCESSIVELY.
   ELEMENT SPIRAL-1.1589 IS DISTORTING EXCESSIVELY.
   ELEMENT SPIRAL-1.1590 IS DISTORTING EXCESSIVELY.
   ELEMENT SPIRAL-1.1592 IS DISTORTING EXCESSIVELY.
   ELEMENT SPIRAL-1.1595 IS DISTORTING EXCESSIVELY.
   ELEMENT SPIRAL-1.1597 IS DISTORTING EXCESSIVELY.
   ELEMENT SPIRAL-1.1598 IS DISTORTING EXCESSIVELY.
   ELEMENT SPIRAL-1.1602 IS DISTORTING EXCESSIVELY.
   ELEMENT SPIRAL-1.1604 IS DISTORTING EXCESSIVELY.
   ELEMENT SPIRAL-1.1605 IS DISTORTING EXCESSIVELY.
   ELEMENT SPIRAL-1.1607 IS DISTORTING EXCESSIVELY.
   ELEMENT SPIRAL-1.1608 IS DISTORTING EXCESSIVELY.
   ELEMENT SPIRAL-1.1613 IS DISTORTING EXCESSIVELY.
   ELEMENT SPIRAL-1.1614 IS DISTORTING EXCESSIVELY.
   ELEMENT SPIRAL-1.1616 IS DISTORTING EXCESSIVELY.
   ELEMENT SPIRAL-1.1622 IS DISTORTING EXCESSIVELY.
   ELEMENT SPIRAL-1.1624 IS DISTORTING EXCESSIVELY.
   ELEMENT SPIRAL-1.1626 IS DISTORTING EXCESSIVELY.
   ELEMENT SPIRAL-1.1627 IS DISTORTING EXCESSIVELY.
   ELEMENT SPIRAL-1.1629 IS DISTORTING EXCESSIVELY.
   ELEMENT SPIRAL-1.1631 IS DISTORTING EXCESSIVELY.
   ELEMENT SPIRAL-1.1632 IS DISTORTING EXCESSIVELY.
   ELEMENT SPIRAL-1.1634 IS DISTORTING EXCESSIVELY.
   ELEMENT SPIRAL-1.1636 IS DISTORTING EXCESSIVELY.
   ELEMENT SPIRAL-1.1638 IS DISTORTING EXCESSIVELY.
   ELEMENT SPIRAL-1.1641 IS DISTORTING EXCESSIVELY.
   ELEMENT SPIRAL-1.1643 IS DISTORTING EXCESSIVELY.
   ELEMENT SPIRAL-1.1647 IS DISTORTING EXCESSIVELY.
   ELEMENT SPIRAL-1.1648 IS DISTORTING EXCESSIVELY.
   ELEMENT SPIRAL-1.1649 IS DISTORTING EXCESSIVELY.
   ELEMENT SPIRAL-1.1652 IS DISTORTING EXCESSIVELY.
   ELEMENT SPIRAL-1.1655 IS DISTORTING EXCESSIVELY.
   ELEMENT SPIRAL-1.1656 IS DISTORTING EXCESSIVELY.
   ELEMENT SPIRAL-1.1657 IS DISTORTING EXCESSIVELY.
   ELEMENT SPIRAL-1.1658 IS DISTORTING EXCESSIVELY.
   ELEMENT SPIRAL-1.1661 IS DISTORTING EXCESSIVELY.
   ELEMENT SPIRAL-1.1663 IS DISTORTING EXCESSIVELY.
   ELEMENT SPIRAL-1.1668 IS DISTORTING EXCESSIVELY.
   ELEMENT SPIRAL-1.1671 IS DISTORTING EXCESSIVELY.
   ELEMENT SPIRAL-1.1674 IS DISTORTING EXCESSIVELY.
   ELEMENT SPIRAL-1.1675 IS DISTORTING EXCESSIVELY.
   ELEMENT SPIRAL-1.1677 IS DISTORTING EXCESSIVELY.
   ELEMENT SPIRAL-1.1678 IS DISTORTING EXCESSIVELY.
   ELEMENT SPIRAL-1.1679 IS DISTORTING EXCESSIVELY.
   ELEMENT SPIRAL-1.1680 IS DISTORTING EXCESSIVELY.
   ELEMENT SPIRAL-1.1684 IS DISTORTING EXCESSIVELY.
   ELEMENT SPIRAL-1.1686 IS DISTORTING EXCESSIVELY.
   ELEMENT SPIRAL-1.1689 IS DISTORTING EXCESSIVELY.
   ELEMENT SPIRAL-1.1691 IS DISTORTING EXCESSIVELY.
   ELEMENT SPIRAL-1.1692 IS DISTORTING EXCESSIVELY.
   ELEMENT SPIRAL-1.1693 IS DISTORTING EXCESSIVELY.
   ELEMENT SPIRAL-1.1696 IS DISTORTING EXCESSIVELY.
   ELEMENT SPIRAL-1.1697 IS DISTORTING EXCESSIVELY.
   ELEMENT SPIRAL-1.1699 IS DISTORTING EXCESSIVELY.
   ELEMENT SPIRAL-1.1700 IS DISTORTING EXCESSIVELY.
   ELEMENT SPIRAL-1.1702 IS DISTORTING EXCESSIVELY.
   ELEMENT SPIRAL-1.1703 IS DISTORTING EXCESSIVELY.
   ELEMENT SPIRAL-1.1704 IS DISTORTING EXCESSIVELY.
   ELEMENT SPIRAL-1.1708 IS DISTORTING EXCESSIVELY.
   ELEMENT SPIRAL-1.1710 IS DISTORTING EXCESSIVELY.
   ELEMENT SPIRAL-1.1711 IS DISTORTING EXCESSIVELY.
   ELEMENT SPIRAL-1.1713 IS DISTORTING EXCESSIVELY.
   ELEMENT SPIRAL-1.1717 IS DISTORTING EXCESSIVELY.
   ELEMENT SPIRAL-1.1718 IS DISTORTING EXCESSIVELY.
   ELEMENT SPIRAL-1.1719 IS DISTORTING EXCESSIVELY.
   ELEMENT SPIRAL-1.1720 IS DISTORTING EXCESSIVELY.
   ELEMENT SPIRAL-1.1721 IS DISTORTING EXCESSIVELY.
   ELEMENT SPIRAL-1.1722 IS DISTORTING EXCESSIVELY.
   ELEMENT SPIRAL-1.1725 IS DISTORTING EXCESSIVELY.
   ELEMENT SPIRAL-1.1726 IS DISTORTING EXCESSIVELY.
   ELEMENT SPIRAL-1.1728 IS DISTORTING EXCESSIVELY.
   ELEMENT SPIRAL-1.1729 IS DISTORTING EXCESSIVELY.
   ELEMENT SPIRAL-1.1730 IS DISTORTING EXCESSIVELY.
   ELEMENT SPIRAL-1.1731 IS DISTORTING EXCESSIVELY.
   ELEMENT SPIRAL-1.1732 IS DISTORTING EXCESSIVELY.
   ELEMENT SPIRAL-1.1740 IS DISTORTING EXCESSIVELY.
   ELEMENT SPIRAL-1.1741 IS DISTORTING EXCESSIVELY.
   ELEMENT SPIRAL-1.1745 IS DISTORTING EXCESSIVELY.
   ELEMENT SPIRAL-1.1746 IS DISTORTING EXCESSIVELY.
   ELEMENT SPIRAL-1.1747 IS DISTORTING EXCESSIVELY.
   ELEMENT SPIRAL-1.1749 IS DISTORTING EXCESSIVELY.
   ELEMENT SPIRAL-1.1750 IS DISTORTING EXCESSIVELY.
   ELEMENT SPIRAL-1.1751 IS DISTORTING EXCESSIVELY.
   ELEMENT SPIRAL-1.1752 IS DISTORTING EXCESSIVELY.
   ELEMENT SPIRAL-1.1753 IS DISTORTING EXCESSIVELY.
   ELEMENT SPIRAL-1.1754 IS DISTORTING EXCESSIVELY.
   ELEMENT SPIRAL-1.1755 IS DISTORTING EXCESSIVELY.
   ELEMENT SPIRAL-1.1756 IS DISTORTING EXCESSIVELY.
   ELEMENT SPIRAL-1.1757 IS DISTORTING EXCESSIVELY.
   ELEMENT SPIRAL-1.1758 IS DISTORTING EXCESSIVELY.
   ELEMENT SPIRAL-1.1759 IS DISTORTING EXCESSIVELY.
   ELEMENT SPIRAL-1.1760 IS DISTORTING EXCESSIVELY.
   ELEMENT SPIRAL-1.1762 IS DISTORTING EXCESSIVELY.
   ELEMENT SPIRAL-1.1763 IS DISTORTING EXCESSIVELY.
   ELEMENT SPIRAL-1.1764 IS DISTORTING EXCESSIVELY.
   ELEMENT SPIRAL-1.1765 IS DISTORTING EXCESSIVELY.
   ELEMENT SPIRAL-1.1766 IS DISTORTING EXCESSIVELY.
   ELEMENT SPIRAL-1.1768 IS DISTORTING EXCESSIVELY.
   ELEMENT SPIRAL-1.1769 IS DISTORTING EXCESSIVELY.
   ELEMENT SPIRAL-1.1770 IS DISTORTING EXCESSIVELY.
   ELEMENT SPIRAL-1.1771 IS DISTORTING EXCESSIVELY.
   ELEMENT SPIRAL-1.1773 IS DISTORTING EXCESSIVELY.
   ELEMENT SPIRAL-1.1774 IS DISTORTING EXCESSIVELY.
   ELEMENT SPIRAL-1.1776 IS DISTORTING EXCESSIVELY.
   ELEMENT SPIRAL-1.1778 IS DISTORTING EXCESSIVELY.
   ELEMENT SPIRAL-1.1779 IS DISTORTING EXCESSIVELY.
   ELEMENT SPIRAL-1.1780 IS DISTORTING EXCESSIVELY.
   ELEMENT SPIRAL-1.1784 IS DISTORTING EXCESSIVELY.
   ELEMENT SPIRAL-1.1787 IS DISTORTING EXCESSIVELY.
   ELEMENT SPIRAL-1.1788 IS DISTORTING EXCESSIVELY.
   ELEMENT SPIRAL-1.1789 IS DISTORTING EXCESSIVELY.
   ELEMENT SPIRAL-1.1790 IS DISTORTING EXCESSIVELY.
   ELEMENT SPIRAL-1.1791 IS DISTORTING EXCESSIVELY.
   ELEMENT SPIRAL-1.1792 IS DISTORTING EXCESSIVELY.
   ELEMENT SPIRAL-1.1793 IS DISTORTING EXCESSIVELY.
   ELEMENT SPIRAL-1.1795 IS DISTORTING EXCESSIVELY.
   ELEMENT SPIRAL-1.1798 IS DISTORTING EXCESSIVELY.
   ELEMENT SPIRAL-1.1799 IS DISTORTING EXCESSIVELY.
   ELEMENT SPIRAL-1.1800 IS DISTORTING EXCESSIVELY.
   ELEMENT SPIRAL-1.1801 IS DISTORTING EXCESSIVELY.
   ELEMENT SPIRAL-1.1803 IS DISTORTING EXCESSIVELY.
   ELEMENT SPIRAL-1.1804 IS DISTORTING EXCESSIVELY.
   ELEMENT SPIRAL-1.1806 IS DISTORTING EXCESSIVELY.
   ELEMENT SPIRAL-1.1810 IS DISTORTING EXCESSIVELY.
   ELEMENT SPIRAL-1.1811 IS DISTORTING EXCESSIVELY.
   ELEMENT SPIRAL-1.1812 IS DISTORTING EXCESSIVELY.
   ELEMENT SPIRAL-1.1815 IS DISTORTING EXCESSIVELY.
   ELEMENT SPIRAL-1.1816 IS DISTORTING EXCESSIVELY.
   ELEMENT SPIRAL-1.1818 IS DISTORTING EXCESSIVELY.
   ELEMENT SPIRAL-1.1819 IS DISTORTING EXCESSIVELY.
   ELEMENT SPIRAL-1.1820 IS DISTORTING EXCESSIVELY.
   ELEMENT SPIRAL-1.1821 IS DISTORTING EXCESSIVELY.
   ELEMENT SPIRAL-1.1823 IS DISTORTING EXCESSIVELY.
   ELEMENT SPIRAL-1.1824 IS DISTORTING EXCESSIVELY.
   ELEMENT SPIRAL-1.1825 IS DISTORTING EXCESSIVELY.
   ELEMENT SPIRAL-1.1827 IS DISTORTING EXCESSIVELY.
   ELEMENT SPIRAL-1.1828 IS DISTORTING EXCESSIVELY.
   ELEMENT SPIRAL-1.1829 IS DISTORTING EXCESSIVELY.
   ELEMENT SPIRAL-1.1830 IS DISTORTING EXCESSIVELY.
   ELEMENT SPIRAL-1.1832 IS DISTORTING EXCESSIVELY.
   ELEMENT SPIRAL-1.1835 IS DISTORTING EXCESSIVELY.
   ELEMENT SPIRAL-1.1838 IS DISTORTING EXCESSIVELY.
   ELEMENT SPIRAL-1.1839 IS DISTORTING EXCESSIVELY.
   ELEMENT SPIRAL-1.1840 IS DISTORTING EXCESSIVELY.
   ELEMENT SPIRAL-1.1841 IS DISTORTING EXCESSIVELY.
   ELEMENT SPIRAL-1.1845 IS DISTORTING EXCESSIVELY.
   ELEMENT SPIRAL-1.1846 IS DISTORTING EXCESSIVELY.
   ELEMENT SPIRAL-1.1847 IS DISTORTING EXCESSIVELY.
   ELEMENT SPIRAL-1.1851 IS DISTORTING EXCESSIVELY.
   ELEMENT SPIRAL-1.1852 IS DISTORTING EXCESSIVELY.
   ELEMENT SPIRAL-1.1857 IS DISTORTING EXCESSIVELY.
   ELEMENT SPIRAL-1.1858 IS DISTORTING EXCESSIVELY.
   ELEMENT SPIRAL-1.1860 IS DISTORTING EXCESSIVELY.
   ELEMENT SPIRAL-1.1861 IS DISTORTING EXCESSIVELY.
   ELEMENT SPIRAL-1.1862 IS DISTORTING EXCESSIVELY.
   ELEMENT SPIRAL-1.1863 IS DISTORTING EXCESSIVELY.
   ELEMENT SPIRAL-1.1864 IS DISTORTING EXCESSIVELY.
   ELEMENT SPIRAL-1.1871 IS DISTORTING EXCESSIVELY.
   ELEMENT SPIRAL-1.1872 IS DISTORTING EXCESSIVELY.
   ELEMENT SPIRAL-1.1874 IS DISTORTING EXCESSIVELY.
   ELEMENT SPIRAL-1.1876 IS DISTORTING EXCESSIVELY.
   ELEMENT SPIRAL-1.1877 IS DISTORTING EXCESSIVELY.
   ELEMENT SPIRAL-1.1878 IS DISTORTING EXCESSIVELY.
   ELEMENT SPIRAL-1.1880 IS DISTORTING EXCESSIVELY.
   ELEMENT SPIRAL-1.1881 IS DISTORTING EXCESSIVELY.
   ELEMENT SPIRAL-1.1882 IS DISTORTING EXCESSIVELY.
   ELEMENT SPIRAL-1.1883 IS DISTORTING EXCESSIVELY.
   ELEMENT SPIRAL-1.1884 IS DISTORTING EXCESSIVELY.
   ELEMENT SPIRAL-1.1885 IS DISTORTING EXCESSIVELY.
   ELEMENT SPIRAL-1.1886 IS DISTORTING EXCESSIVELY.
   ELEMENT SPIRAL-1.1888 IS DISTORTING EXCESSIVELY.
   ELEMENT SPIRAL-1.1891 IS DISTORTING EXCESSIVELY.
   ELEMENT SPIRAL-1.1893 IS DISTORTING EXCESSIVELY.
   ELEMENT SPIRAL-1.1894 IS DISTORTING EXCESSIVELY.
   ELEMENT SPIRAL-1.1895 IS DISTORTING EXCESSIVELY.
   ELEMENT SPIRAL-1.1896 IS DISTORTING EXCESSIVELY.
   ELEMENT SPIRAL-1.1897 IS DISTORTING EXCESSIVELY.
   ELEMENT SPIRAL-1.1899 IS DISTORTING EXCESSIVELY.
   ELEMENT SPIRAL-1.1903 IS DISTORTING EXCESSIVELY.
   ELEMENT SPIRAL-1.1914 IS DISTORTING EXCESSIVELY.
   ELEMENT SPIRAL-1.1916 IS DISTORTING EXCESSIVELY.
   ELEMENT SPIRAL-1.1917 IS DISTORTING EXCESSIVELY.
   ELEMENT SPIRAL-1.1918 IS DISTORTING EXCESSIVELY.
   ELEMENT SPIRAL-1.1919 IS DISTORTING EXCESSIVELY.
   ELEMENT SPIRAL-1.1924 IS DISTORTING EXCESSIVELY.
   ELEMENT SPIRAL-1.1925 IS DISTORTING EXCESSIVELY.
   ELEMENT SPIRAL-1.1926 IS DISTORTING EXCESSIVELY.
   ELEMENT SPIRAL-1.1927 IS DISTORTING EXCESSIVELY.
   ELEMENT SPIRAL-1.1929 IS DISTORTING EXCESSIVELY.
   ELEMENT SPIRAL-1.1930 IS DISTORTING EXCESSIVELY.
   ELEMENT SPIRAL-1.1931 IS DISTORTING EXCESSIVELY.
   ELEMENT SPIRAL-1.1932 IS DISTORTING EXCESSIVELY.
   ELEMENT SPIRAL-1.1933 IS DISTORTING EXCESSIVELY.
   ELEMENT SPIRAL-1.1935 IS DISTORTING EXCESSIVELY.
   ELEMENT SPIRAL-1.1936 IS DISTORTING EXCESSIVELY.
   ELEMENT SPIRAL-1.1938 IS DISTORTING EXCESSIVELY.
   ELEMENT SPIRAL-1.1939 IS DISTORTING EXCESSIVELY.
   ELEMENT SPIRAL-1.1941 IS DISTORTING EXCESSIVELY.
   ELEMENT SPIRAL-1.1944 IS DISTORTING EXCESSIVELY.
   ELEMENT SPIRAL-1.1946 IS DISTORTING EXCESSIVELY.
   ELEMENT SPIRAL-1.1948 IS DISTORTING EXCESSIVELY.
   ELEMENT SPIRAL-1.1951 IS DISTORTING EXCESSIVELY.
   ELEMENT SPIRAL-1.1953 IS DISTORTING EXCESSIVELY.
   ELEMENT SPIRAL-1.1957 IS DISTORTING EXCESSIVELY.
   ELEMENT SPIRAL-1.1960 IS DISTORTING EXCESSIVELY.
   ELEMENT SPIRAL-1.1961 IS DISTORTING EXCESSIVELY.
   ELEMENT SPIRAL-1.1963 IS DISTORTING EXCESSIVELY.
   ELEMENT SPIRAL-1.1967 IS DISTORTING EXCESSIVELY.
   ELEMENT SPIRAL-1.1968 IS DISTORTING EXCESSIVELY.
   ELEMENT SPIRAL-1.1969 IS DISTORTING EXCESSIVELY.
   ELEMENT SPIRAL-1.1970 IS DISTORTING EXCESSIVELY.
   ELEMENT SPIRAL-1.1973 IS DISTORTING EXCESSIVELY.
   ELEMENT SPIRAL-1.1974 IS DISTORTING EXCESSIVELY.
   ELEMENT SPIRAL-1.1975 IS DISTORTING EXCESSIVELY.
   ELEMENT SPIRAL-1.1981 IS DISTORTING EXCESSIVELY.
   ELEMENT SPIRAL-1.1982 IS DISTORTING EXCESSIVELY.
   ELEMENT SPIRAL-1.1983 IS DISTORTING EXCESSIVELY.
   ELEMENT SPIRAL-1.1984 IS DISTORTING EXCESSIVELY.
   ELEMENT SPIRAL-1.1985 IS DISTORTING EXCESSIVELY.
   ELEMENT SPIRAL-1.1987 IS DISTORTING EXCESSIVELY.
   ELEMENT SPIRAL-1.1989 IS DISTORTING EXCESSIVELY.
   ELEMENT SPIRAL-1.1990 IS DISTORTING EXCESSIVELY.
   ELEMENT SPIRAL-1.1992 IS DISTORTING EXCESSIVELY.
   ELEMENT SPIRAL-1.1999 IS DISTORTING EXCESSIVELY.
   ELEMENT SPIRAL-1.2000 IS DISTORTING EXCESSIVELY.
   ELEMENT SPIRAL-1.2002 IS DISTORTING EXCESSIVELY.
   ELEMENT SPIRAL-1.2005 IS DISTORTING EXCESSIVELY.
   ELEMENT SPIRAL-1.2007 IS DISTORTING EXCESSIVELY.
   ELEMENT SPIRAL-1.2012 IS DISTORTING EXCESSIVELY.
   ELEMENT SPIRAL-1.2013 IS DISTORTING EXCESSIVELY.
   ELEMENT SPIRAL-1.2014 IS DISTORTING EXCESSIVELY.
   ELEMENT SPIRAL-1.2017 IS DISTORTING EXCESSIVELY.
   ELEMENT SPIRAL-1.2018 IS DISTORTING EXCESSIVELY.
   ELEMENT SPIRAL-1.2019 IS DISTORTING EXCESSIVELY.
   ELEMENT SPIRAL-1.2020 IS DISTORTING EXCESSIVELY.
   ELEMENT SPIRAL-1.2021 IS DISTORTING EXCESSIVELY.
   ELEMENT SPIRAL-1.2022 IS DISTORTING EXCESSIVELY.
   ELEMENT SPIRAL-1.2025 IS DISTORTING EXCESSIVELY.
   ELEMENT SPIRAL-1.2030 IS DISTORTING EXCESSIVELY.
   ELEMENT SPIRAL-1.2036 IS DISTORTING EXCESSIVELY.
   ELEMENT SPIRAL-1.2037 IS DISTORTING EXCESSIVELY.
   ELEMENT SPIRAL-1.2038 IS DISTORTING EXCESSIVELY.
   ELEMENT SPIRAL-1.2039 IS DISTORTING EXCESSIVELY.
   ELEMENT SPIRAL-1.2041 IS DISTORTING EXCESSIVELY.
   ELEMENT SPIRAL-1.2042 IS DISTORTING EXCESSIVELY.
   ELEMENT SPIRAL-1.2046 IS DISTORTING EXCESSIVELY.
   ELEMENT SPIRAL-1.2049 IS DISTORTING EXCESSIVELY.
   ELEMENT SPIRAL-1.2050 IS DISTORTING EXCESSIVELY.
   ELEMENT SPIRAL-1.2052 IS DISTORTING EXCESSIVELY.
   ELEMENT SPIRAL-1.2054 IS DISTORTING EXCESSIVELY.
   ELEMENT SPIRAL-1.2055 IS DISTORTING EXCESSIVELY.
   ELEMENT SPIRAL-1.2059 IS DISTORTING EXCESSIVELY.
   ELEMENT SPIRAL-1.2061 IS DISTORTING EXCESSIVELY.
   ELEMENT SPIRAL-1.2062 IS DISTORTING EXCESSIVELY.
   ELEMENT SPIRAL-1.2069 IS DISTORTING EXCESSIVELY.
   ELEMENT SPIRAL-1.2070 IS DISTORTING EXCESSIVELY.
   ELEMENT SPIRAL-1.2071 IS DISTORTING EXCESSIVELY.
   ELEMENT SPIRAL-1.2072 IS DISTORTING EXCESSIVELY.
   ELEMENT SPIRAL-1.2075 IS DISTORTING EXCESSIVELY.
   ELEMENT SPIRAL-1.2076 IS DISTORTING EXCESSIVELY.
   ELEMENT SPIRAL-1.2082 IS DISTORTING EXCESSIVELY.
   ELEMENT SPIRAL-1.2084 IS DISTORTING EXCESSIVELY.
   ELEMENT SPIRAL-1.2085 IS DISTORTING EXCESSIVELY.
   ELEMENT SPIRAL-1.2090 IS DISTORTING EXCESSIVELY.
   ELEMENT SPIRAL-1.2091 IS DISTORTING EXCESSIVELY.
   ELEMENT SPIRAL-1.2099 IS DISTORTING EXCESSIVELY.
   ELEMENT SPIRAL-1.2100 IS DISTORTING EXCESSIVELY.
   ELEMENT SPIRAL-1.2102 IS DISTORTING EXCESSIVELY.
   ELEMENT SPIRAL-1.2104 IS DISTORTING EXCESSIVELY.
   ELEMENT SPIRAL-1.2106 IS DISTORTING EXCESSIVELY.
   ELEMENT SPIRAL-1.2107 IS DISTORTING EXCESSIVELY.
   ELEMENT SPIRAL-1.2108 IS DISTORTING EXCESSIVELY.
   ELEMENT SPIRAL-1.2109 IS DISTORTING EXCESSIVELY.
   ELEMENT SPIRAL-1.2110 IS DISTORTING EXCESSIVELY.
   ELEMENT SPIRAL-1.2111 IS DISTORTING EXCESSIVELY.
   ELEMENT SPIRAL-1.2114 IS DISTORTING EXCESSIVELY.
   ELEMENT SPIRAL-1.2115 IS DISTORTING EXCESSIVELY.
   ELEMENT SPIRAL-1.2117 IS DISTORTING EXCESSIVELY.
   ELEMENT SPIRAL-1.2120 IS DISTORTING EXCESSIVELY.
   ELEMENT SPIRAL-1.2121 IS DISTORTING EXCESSIVELY.
   ELEMENT SPIRAL-1.2123 IS DISTORTING EXCESSIVELY.
   ELEMENT SPIRAL-1.2124 IS DISTORTING EXCESSIVELY.
   ELEMENT SPIRAL-1.2129 IS DISTORTING EXCESSIVELY.
   ELEMENT SPIRAL-1.2130 IS DISTORTING EXCESSIVELY.
   ELEMENT SPIRAL-1.2133 IS DISTORTING EXCESSIVELY.
   ELEMENT SPIRAL-1.2134 IS DISTORTING EXCESSIVELY.
   ELEMENT SPIRAL-1.2136 IS DISTORTING EXCESSIVELY.
   ELEMENT SPIRAL-1.2139 IS DISTORTING EXCESSIVELY.
   ELEMENT SPIRAL-1.2140 IS DISTORTING EXCESSIVELY.
   ELEMENT SPIRAL-1.2141 IS DISTORTING EXCESSIVELY.
   ELEMENT SPIRAL-1.2143 IS DISTORTING EXCESSIVELY.
   ELEMENT SPIRAL-1.2144 IS DISTORTING EXCESSIVELY.
   ELEMENT SPIRAL-1.2146 IS DISTORTING EXCESSIVELY.
   ELEMENT SPIRAL-1.2148 IS DISTORTING EXCESSIVELY.
   ELEMENT SPIRAL-1.2150 IS DISTORTING EXCESSIVELY.
   ELEMENT SPIRAL-1.2153 IS DISTORTING EXCESSIVELY.
   ELEMENT SPIRAL-1.2155 IS DISTORTING EXCESSIVELY.
   ELEMENT SPIRAL-1.2156 IS DISTORTING EXCESSIVELY.
   ELEMENT SPIRAL-1.2160 IS DISTORTING EXCESSIVELY.
   ELEMENT SPIRAL-1.2162 IS DISTORTING EXCESSIVELY.
   ELEMENT SPIRAL-1.2165 IS DISTORTING EXCESSIVELY.
   ELEMENT SPIRAL-1.2166 IS DISTORTING EXCESSIVELY.
   ELEMENT SPIRAL-1.2167 IS DISTORTING EXCESSIVELY.
   ELEMENT SPIRAL-1.2171 IS DISTORTING EXCESSIVELY.
   ELEMENT SPIRAL-1.2172 IS DISTORTING EXCESSIVELY.
   ELEMENT SPIRAL-1.2173 IS DISTORTING EXCESSIVELY.
   ELEMENT SPIRAL-1.2176 IS DISTORTING EXCESSIVELY.
   ELEMENT SPIRAL-1.2177 IS DISTORTING EXCESSIVELY.
   ELEMENT SPIRAL-1.2178 IS DISTORTING EXCESSIVELY.
   ELEMENT SPIRAL-1.2179 IS DISTORTING EXCESSIVELY.
   ELEMENT SPIRAL-1.2181 IS DISTORTING EXCESSIVELY.
   ELEMENT SPIRAL-1.2183 IS DISTORTING EXCESSIVELY.
   ELEMENT SPIRAL-1.2184 IS DISTORTING EXCESSIVELY.
   ELEMENT SPIRAL-1.2185 IS DISTORTING EXCESSIVELY.
   ELEMENT SPIRAL-1.2186 IS DISTORTING EXCESSIVELY.
   ELEMENT SPIRAL-1.2188 IS DISTORTING EXCESSIVELY.
   ELEMENT SPIRAL-1.2189 IS DISTORTING EXCESSIVELY.
   ELEMENT SPIRAL-1.2190 IS DISTORTING EXCESSIVELY.
   ELEMENT SPIRAL-1.2191 IS DISTORTING EXCESSIVELY.
   ELEMENT SPIRAL-1.2194 IS DISTORTING EXCESSIVELY.
   ELEMENT SPIRAL-1.2195 IS DISTORTING EXCESSIVELY.
   ELEMENT SPIRAL-1.2196 IS DISTORTING EXCESSIVELY.
   ELEMENT SPIRAL-1.2197 IS DISTORTING EXCESSIVELY.
   ELEMENT SPIRAL-1.2198 IS DISTORTING EXCESSIVELY.
   ELEMENT SPIRAL-1.2199 IS DISTORTING EXCESSIVELY.
   ELEMENT SPIRAL-1.2204 IS DISTORTING EXCESSIVELY.
   ELEMENT SPIRAL-1.2207 IS DISTORTING EXCESSIVELY.
   ELEMENT SPIRAL-1.2208 IS DISTORTING EXCESSIVELY.
   ELEMENT SPIRAL-1.2212 IS DISTORTING EXCESSIVELY.
   ELEMENT SPIRAL-1.2215 IS DISTORTING EXCESSIVELY.
   ELEMENT SPIRAL-1.2217 IS DISTORTING EXCESSIVELY.
   ELEMENT SPIRAL-1.2218 IS DISTORTING EXCESSIVELY.
   ELEMENT SPIRAL-1.2219 IS DISTORTING EXCESSIVELY.
   ELEMENT SPIRAL-1.2220 IS DISTORTING EXCESSIVELY.
   ELEMENT SPIRAL-1.2225 IS DISTORTING EXCESSIVELY.
   ELEMENT SPIRAL-1.2227 IS DISTORTING EXCESSIVELY.
   ELEMENT SPIRAL-1.2228 IS DISTORTING EXCESSIVELY.
   ELEMENT SPIRAL-1.2229 IS DISTORTING EXCESSIVELY.
   ELEMENT SPIRAL-1.2230 IS DISTORTING EXCESSIVELY.
   ELEMENT SPIRAL-1.2232 IS DISTORTING EXCESSIVELY.
   ELEMENT SPIRAL-1.2233 IS DISTORTING EXCESSIVELY.
   ELEMENT SPIRAL-1.2238 IS DISTORTING EXCESSIVELY.
   ELEMENT SPIRAL-1.2239 IS DISTORTING EXCESSIVELY.
   ELEMENT SPIRAL-1.2240 IS DISTORTING EXCESSIVELY.
   ELEMENT SPIRAL-1.2243 IS DISTORTING EXCESSIVELY.
   ELEMENT SPIRAL-1.2247 IS DISTORTING EXCESSIVELY.
   ELEMENT SPIRAL-1.2248 IS DISTORTING EXCESSIVELY.
   ELEMENT SPIRAL-1.2251 IS DISTORTING EXCESSIVELY.
   ELEMENT SPIRAL-1.2253 IS DISTORTING EXCESSIVELY.
   ELEMENT SPIRAL-1.2256 IS DISTORTING EXCESSIVELY.
   ELEMENT SPIRAL-1.2258 IS DISTORTING EXCESSIVELY.
   ELEMENT SPIRAL-1.2260 IS DISTORTING EXCESSIVELY.
   ELEMENT SPIRAL-1.2261 IS DISTORTING EXCESSIVELY.
   ELEMENT SPIRAL-1.2262 IS DISTORTING EXCESSIVELY.
   ELEMENT SPIRAL-1.2272 IS DISTORTING EXCESSIVELY.
   ELEMENT SPIRAL-1.2273 IS DISTORTING EXCESSIVELY.
   ELEMENT SPIRAL-1.2275 IS DISTORTING EXCESSIVELY.
   ELEMENT SPIRAL-1.2277 IS DISTORTING EXCESSIVELY.
   ELEMENT SPIRAL-1.2280 IS DISTORTING EXCESSIVELY.
   ELEMENT SPIRAL-1.2282 IS DISTORTING EXCESSIVELY.
   ELEMENT SPIRAL-1.2283 IS DISTORTING EXCESSIVELY.
   ELEMENT SPIRAL-1.2285 IS DISTORTING EXCESSIVELY.
   ELEMENT SPIRAL-1.2286 IS DISTORTING EXCESSIVELY.
   ELEMENT SPIRAL-1.2288 IS DISTORTING EXCESSIVELY.
   ELEMENT SPIRAL-1.2291 IS DISTORTING EXCESSIVELY.
   ELEMENT SPIRAL-1.2294 IS DISTORTING EXCESSIVELY.
   ELEMENT SPIRAL-1.2296 IS DISTORTING EXCESSIVELY.
   ELEMENT SPIRAL-1.2298 IS DISTORTING EXCESSIVELY.
   ELEMENT SPIRAL-1.2299 IS DISTORTING EXCESSIVELY.
   ELEMENT SPIRAL-1.2300 IS DISTORTING EXCESSIVELY.
   ELEMENT SPIRAL-1.2303 IS DISTORTING EXCESSIVELY.
   ELEMENT SPIRAL-1.2304 IS DISTORTING EXCESSIVELY.
   ELEMENT SPIRAL-1.2307 IS DISTORTING EXCESSIVELY.
   ELEMENT SPIRAL-1.2309 IS DISTORTING EXCESSIVELY.
   ELEMENT SPIRAL-1.2312 IS DISTORTING EXCESSIVELY.
   ELEMENT SPIRAL-1.2314 IS DISTORTING EXCESSIVELY.
   ELEMENT SPIRAL-1.2315 IS DISTORTING EXCESSIVELY.
   ELEMENT SPIRAL-1.2316 IS DISTORTING EXCESSIVELY.
   ELEMENT SPIRAL-1.2317 IS DISTORTING EXCESSIVELY.
   ELEMENT SPIRAL-1.2318 IS DISTORTING EXCESSIVELY.
   ELEMENT SPIRAL-1.2319 IS DISTORTING EXCESSIVELY.
   ELEMENT SPIRAL-1.2321 IS DISTORTING EXCESSIVELY.
   ELEMENT SPIRAL-1.2323 IS DISTORTING EXCESSIVELY.
   ELEMENT SPIRAL-1.2324 IS DISTORTING EXCESSIVELY.
   ELEMENT SPIRAL-1.2329 IS DISTORTING EXCESSIVELY.
   ELEMENT SPIRAL-1.2330 IS DISTORTING EXCESSIVELY.
   ELEMENT SPIRAL-1.2333 IS DISTORTING EXCESSIVELY.
   ELEMENT SPIRAL-1.2334 IS DISTORTING EXCESSIVELY.
   ELEMENT SPIRAL-1.2335 IS DISTORTING EXCESSIVELY.
   ELEMENT SPIRAL-1.2337 IS DISTORTING EXCESSIVELY.
   ELEMENT SPIRAL-1.2342 IS DISTORTING EXCESSIVELY.
   ELEMENT SPIRAL-1.2344 IS DISTORTING EXCESSIVELY.
   ELEMENT SPIRAL-1.2346 IS DISTORTING EXCESSIVELY.
   ELEMENT SPIRAL-1.2347 IS DISTORTING EXCESSIVELY.
   ELEMENT SPIRAL-1.2348 IS DISTORTING EXCESSIVELY.
   ELEMENT SPIRAL-1.2351 IS DISTORTING EXCESSIVELY.
   ELEMENT SPIRAL-1.2355 IS DISTORTING EXCESSIVELY.
   ELEMENT SPIRAL-1.2356 IS DISTORTING EXCESSIVELY.
   ELEMENT SPIRAL-1.2358 IS DISTORTING EXCESSIVELY.
   ELEMENT SPIRAL-1.2359 IS DISTORTING EXCESSIVELY.
   ELEMENT SPIRAL-1.2360 IS DISTORTING EXCESSIVELY.
   ELEMENT SPIRAL-1.2362 IS DISTORTING EXCESSIVELY.
   ELEMENT SPIRAL-1.2364 IS DISTORTING EXCESSIVELY.
   ELEMENT SPIRAL-1.2365 IS DISTORTING EXCESSIVELY.
   ELEMENT SPIRAL-1.2368 IS DISTORTING EXCESSIVELY.
   ELEMENT SPIRAL-1.2370 IS DISTORTING EXCESSIVELY.
   ELEMENT SPIRAL-1.2371 IS DISTORTING EXCESSIVELY.
   ELEMENT SPIRAL-1.2372 IS DISTORTING EXCESSIVELY.
   ELEMENT SPIRAL-1.2375 IS DISTORTING EXCESSIVELY.
   ELEMENT SPIRAL-1.2376 IS DISTORTING EXCESSIVELY.
   ELEMENT SPIRAL-1.2378 IS DISTORTING EXCESSIVELY.
   ELEMENT SPIRAL-1.2379 IS DISTORTING EXCESSIVELY.
   ELEMENT SPIRAL-1.2380 IS DISTORTING EXCESSIVELY.
   ELEMENT SPIRAL-1.2381 IS DISTORTING EXCESSIVELY.
   ELEMENT SPIRAL-1.2384 IS DISTORTING EXCESSIVELY.
   ELEMENT SPIRAL-1.2385 IS DISTORTING EXCESSIVELY.
   ELEMENT SPIRAL-1.2387 IS DISTORTING EXCESSIVELY.
   ELEMENT SPIRAL-1.2388 IS DISTORTING EXCESSIVELY.
   ELEMENT SPIRAL-1.2389 IS DISTORTING EXCESSIVELY.
   ELEMENT SPIRAL-1.2390 IS DISTORTING EXCESSIVELY.
   ELEMENT SPIRAL-1.2391 IS DISTORTING EXCESSIVELY.
   ELEMENT SPIRAL-1.2393 IS DISTORTING EXCESSIVELY.
   ELEMENT SPIRAL-1.2397 IS DISTORTING EXCESSIVELY.
   ELEMENT SPIRAL-1.2398 IS DISTORTING EXCESSIVELY.
   ELEMENT SPIRAL-1.2401 IS DISTORTING EXCESSIVELY.
   ELEMENT SPIRAL-1.2402 IS DISTORTING EXCESSIVELY.
   ELEMENT SPIRAL-1.2403 IS DISTORTING EXCESSIVELY.
   ELEMENT SPIRAL-1.2404 IS DISTORTING EXCESSIVELY.
   ELEMENT SPIRAL-1.2406 IS DISTORTING EXCESSIVELY.
   ELEMENT SPIRAL-1.2407 IS DISTORTING EXCESSIVELY.
   ELEMENT SPIRAL-1.2411 IS DISTORTING EXCESSIVELY.
   ELEMENT SPIRAL-1.2412 IS DISTORTING EXCESSIVELY.
   ELEMENT SPIRAL-1.2413 IS DISTORTING EXCESSIVELY.
   ELEMENT SPIRAL-1.2416 IS DISTORTING EXCESSIVELY.
   ELEMENT SPIRAL-1.2417 IS DISTORTING EXCESSIVELY.
   ELEMENT SPIRAL-1.2419 IS DISTORTING EXCESSIVELY.
   ELEMENT SPIRAL-1.2420 IS DISTORTING EXCESSIVELY.
   ELEMENT SPIRAL-1.2421 IS DISTORTING EXCESSIVELY.
   ELEMENT SPIRAL-1.2422 IS DISTORTING EXCESSIVELY.
   ELEMENT SPIRAL-1.2425 IS DISTORTING EXCESSIVELY.
   ELEMENT SPIRAL-1.2427 IS DISTORTING EXCESSIVELY.
   ELEMENT SPIRAL-1.2428 IS DISTORTING EXCESSIVELY.
   ELEMENT SPIRAL-1.2430 IS DISTORTING EXCESSIVELY.
   ELEMENT SPIRAL-1.2431 IS DISTORTING EXCESSIVELY.
   ELEMENT SPIRAL-1.2434 IS DISTORTING EXCESSIVELY.
   ELEMENT SPIRAL-1.2435 IS DISTORTING EXCESSIVELY.
   ELEMENT SPIRAL-1.2436 IS DISTORTING EXCESSIVELY.
   ELEMENT SPIRAL-1.2439 IS DISTORTING EXCESSIVELY.
   ELEMENT SPIRAL-1.2444 IS DISTORTING EXCESSIVELY.
   ELEMENT SPIRAL-1.2445 IS DISTORTING EXCESSIVELY.
   ELEMENT SPIRAL-1.2450 IS DISTORTING EXCESSIVELY.
   ELEMENT SPIRAL-1.2451 IS DISTORTING EXCESSIVELY.
   ELEMENT SPIRAL-1.2452 IS DISTORTING EXCESSIVELY.
   ELEMENT SPIRAL-1.2453 IS DISTORTING EXCESSIVELY.
   ELEMENT SPIRAL-1.2455 IS DISTORTING EXCESSIVELY.
   ELEMENT SPIRAL-1.2456 IS DISTORTING EXCESSIVELY.
   ELEMENT SPIRAL-1.2459 IS DISTORTING EXCESSIVELY.
   ELEMENT SPIRAL-1.2461 IS DISTORTING EXCESSIVELY.
   ELEMENT SPIRAL-1.2462 IS DISTORTING EXCESSIVELY.
   ELEMENT SPIRAL-1.2463 IS DISTORTING EXCESSIVELY.
   ELEMENT SPIRAL-1.2464 IS DISTORTING EXCESSIVELY.
   ELEMENT SPIRAL-1.2466 IS DISTORTING EXCESSIVELY.
   ELEMENT SPIRAL-1.2468 IS DISTORTING EXCESSIVELY.
   ELEMENT SPIRAL-1.2470 IS DISTORTING EXCESSIVELY.
   ELEMENT SPIRAL-1.2472 IS DISTORTING EXCESSIVELY.
   ELEMENT SPIRAL-1.2473 IS DISTORTING EXCESSIVELY.
   ELEMENT SPIRAL-1.2474 IS DISTORTING EXCESSIVELY.
   ELEMENT SPIRAL-1.2475 IS DISTORTING EXCESSIVELY.
   ELEMENT SPIRAL-1.2476 IS DISTORTING EXCESSIVELY.
   ELEMENT SPIRAL-1.2478 IS DISTORTING EXCESSIVELY.
   ELEMENT SPIRAL-1.2479 IS DISTORTING EXCESSIVELY.
   ELEMENT SPIRAL-1.2480 IS DISTORTING EXCESSIVELY.
   ELEMENT SPIRAL-1.2481 IS DISTORTING EXCESSIVELY.
   ELEMENT SPIRAL-1.2483 IS DISTORTING EXCESSIVELY.
   ELEMENT SPIRAL-1.2484 IS DISTORTING EXCESSIVELY.
   ELEMENT SPIRAL-1.2485 IS DISTORTING EXCESSIVELY.
   ELEMENT SPIRAL-1.2489 IS DISTORTING EXCESSIVELY.
   ELEMENT SPIRAL-1.2490 IS DISTORTING EXCESSIVELY.
   ELEMENT SPIRAL-1.2499 IS DISTORTING EXCESSIVELY.
   ELEMENT SPIRAL-1.2501 IS DISTORTING EXCESSIVELY.
   ELEMENT SPIRAL-1.2504 IS DISTORTING EXCESSIVELY.
   ELEMENT SPIRAL-1.2505 IS DISTORTING EXCESSIVELY.
   ELEMENT SPIRAL-1.2509 IS DISTORTING EXCESSIVELY.
   ELEMENT SPIRAL-1.2510 IS DISTORTING EXCESSIVELY.
   ELEMENT SPIRAL-1.2512 IS DISTORTING EXCESSIVELY.
   ELEMENT SPIRAL-1.2513 IS DISTORTING EXCESSIVELY.
   ELEMENT SPIRAL-1.2515 IS DISTORTING EXCESSIVELY.
   ELEMENT SPIRAL-1.2516 IS DISTORTING EXCESSIVELY.
   ELEMENT SPIRAL-1.2518 IS DISTORTING EXCESSIVELY.
   ELEMENT SPIRAL-1.2526 IS DISTORTING EXCESSIVELY.
   ELEMENT SPIRAL-1.2528 IS DISTORTING EXCESSIVELY.
   ELEMENT SPIRAL-1.2529 IS DISTORTING EXCESSIVELY.
   ELEMENT SPIRAL-1.2531 IS DISTORTING EXCESSIVELY.
   ELEMENT SPIRAL-1.2532 IS DISTORTING EXCESSIVELY.
   ELEMENT SPIRAL-1.2534 IS DISTORTING EXCESSIVELY.
   ELEMENT SPIRAL-1.2538 IS DISTORTING EXCESSIVELY.
   ELEMENT SPIRAL-1.2541 IS DISTORTING EXCESSIVELY.
   ELEMENT SPIRAL-1.2544 IS DISTORTING EXCESSIVELY.
   ELEMENT SPIRAL-1.2546 IS DISTORTING EXCESSIVELY.
   ELEMENT SPIRAL-1.2547 IS DISTORTING EXCESSIVELY.
   ELEMENT SPIRAL-1.2548 IS DISTORTING EXCESSIVELY.
   ELEMENT SPIRAL-1.2552 IS DISTORTING EXCESSIVELY.
   ELEMENT SPIRAL-1.2554 IS DISTORTING EXCESSIVELY.
   ELEMENT SPIRAL-1.2557 IS DISTORTING EXCESSIVELY.
   ELEMENT SPIRAL-1.2559 IS DISTORTING EXCESSIVELY.
   ELEMENT SPIRAL-1.2560 IS DISTORTING EXCESSIVELY.
   ELEMENT SPIRAL-1.2561 IS DISTORTING EXCESSIVELY.
   ELEMENT SPIRAL-1.2564 IS DISTORTING EXCESSIVELY.
   ELEMENT SPIRAL-1.2566 IS DISTORTING EXCESSIVELY.
   ELEMENT SPIRAL-1.2568 IS DISTORTING EXCESSIVELY.
   ELEMENT SPIRAL-1.2572 IS DISTORTING EXCESSIVELY.
   ELEMENT SPIRAL-1.2574 IS DISTORTING EXCESSIVELY.
   ELEMENT SPIRAL-1.2576 IS DISTORTING EXCESSIVELY.
   ELEMENT SPIRAL-1.2578 IS DISTORTING EXCESSIVELY.
   ELEMENT SPIRAL-1.2580 IS DISTORTING EXCESSIVELY.
   ELEMENT SPIRAL-1.2582 IS DISTORTING EXCESSIVELY.
   ELEMENT SPIRAL-1.2583 IS DISTORTING EXCESSIVELY.
   ELEMENT SPIRAL-1.2585 IS DISTORTING EXCESSIVELY.
   ELEMENT SPIRAL-1.2588 IS DISTORTING EXCESSIVELY.
   ELEMENT SPIRAL-1.2590 IS DISTORTING EXCESSIVELY.
   ELEMENT SPIRAL-1.2591 IS DISTORTING EXCESSIVELY.
   ELEMENT SPIRAL-1.2592 IS DISTORTING EXCESSIVELY.
   ELEMENT SPIRAL-1.2594 IS DISTORTING EXCESSIVELY.
   ELEMENT SPIRAL-1.2596 IS DISTORTING EXCESSIVELY.
   ELEMENT SPIRAL-1.2600 IS DISTORTING EXCESSIVELY.
   ELEMENT SPIRAL-1.2602 IS DISTORTING EXCESSIVELY.
   ELEMENT SPIRAL-1.2604 IS DISTORTING EXCESSIVELY.
   ELEMENT SPIRAL-1.2605 IS DISTORTING EXCESSIVELY.
   ELEMENT SPIRAL-1.2607 IS DISTORTING EXCESSIVELY.
   ELEMENT SPIRAL-1.2610 IS DISTORTING EXCESSIVELY.
   ELEMENT SPIRAL-1.2613 IS DISTORTING EXCESSIVELY.
   ELEMENT SPIRAL-1.2614 IS DISTORTING EXCESSIVELY.
   ELEMENT SPIRAL-1.2619 IS DISTORTING EXCESSIVELY.
   ELEMENT SPIRAL-1.2620 IS DISTORTING EXCESSIVELY.
   ELEMENT SPIRAL-1.2621 IS DISTORTING EXCESSIVELY.
   ELEMENT SPIRAL-1.2624 IS DISTORTING EXCESSIVELY.
   ELEMENT SPIRAL-1.2627 IS DISTORTING EXCESSIVELY.
   ELEMENT SPIRAL-1.2628 IS DISTORTING EXCESSIVELY.
   ELEMENT SPIRAL-1.2629 IS DISTORTING EXCESSIVELY.
   ELEMENT SPIRAL-1.2630 IS DISTORTING EXCESSIVELY.
   ELEMENT SPIRAL-1.2632 IS DISTORTING EXCESSIVELY.
   ELEMENT SPIRAL-1.2634 IS DISTORTING EXCESSIVELY.
   ELEMENT SPIRAL-1.2639 IS DISTORTING EXCESSIVELY.
   ELEMENT SPIRAL-1.2642 IS DISTORTING EXCESSIVELY.
   ELEMENT SPIRAL-1.2643 IS DISTORTING EXCESSIVELY.
   ELEMENT SPIRAL-1.2645 IS DISTORTING EXCESSIVELY.
   ELEMENT SPIRAL-1.2646 IS DISTORTING EXCESSIVELY.
   ELEMENT SPIRAL-1.2648 IS DISTORTING EXCESSIVELY.
   ELEMENT SPIRAL-1.2650 IS DISTORTING EXCESSIVELY.
   ELEMENT SPIRAL-1.2653 IS DISTORTING EXCESSIVELY.
   ELEMENT SPIRAL-1.2654 IS DISTORTING EXCESSIVELY.
   ELEMENT SPIRAL-1.2658 IS DISTORTING EXCESSIVELY.
   ELEMENT SPIRAL-1.2660 IS DISTORTING EXCESSIVELY.
   ELEMENT SPIRAL-1.2662 IS DISTORTING EXCESSIVELY.
   ELEMENT SPIRAL-1.2663 IS DISTORTING EXCESSIVELY.
   ELEMENT SPIRAL-1.2664 IS DISTORTING EXCESSIVELY.
   ELEMENT SPIRAL-1.2668 IS DISTORTING EXCESSIVELY.
   ELEMENT SPIRAL-1.2669 IS DISTORTING EXCESSIVELY.
   ELEMENT SPIRAL-1.2670 IS DISTORTING EXCESSIVELY.
   ELEMENT SPIRAL-1.2671 IS DISTORTING EXCESSIVELY.
   ELEMENT SPIRAL-1.2672 IS DISTORTING EXCESSIVELY.
   ELEMENT SPIRAL-1.2673 IS DISTORTING EXCESSIVELY.
   ELEMENT SPIRAL-1.2676 IS DISTORTING EXCESSIVELY.
   ELEMENT SPIRAL-1.2677 IS DISTORTING EXCESSIVELY.
   ELEMENT SPIRAL-1.2678 IS DISTORTING EXCESSIVELY.
   ELEMENT SPIRAL-1.2679 IS DISTORTING EXCESSIVELY.
   ELEMENT SPIRAL-1.2682 IS DISTORTING EXCESSIVELY.
   ELEMENT SPIRAL-1.2688 IS DISTORTING EXCESSIVELY.
   ELEMENT SPIRAL-1.2691 IS DISTORTING EXCESSIVELY.
   ELEMENT SPIRAL-1.2692 IS DISTORTING EXCESSIVELY.
   ELEMENT SPIRAL-1.2693 IS DISTORTING EXCESSIVELY.
   ELEMENT SPIRAL-1.2697 IS DISTORTING EXCESSIVELY.
   ELEMENT SPIRAL-1.2698 IS DISTORTING EXCESSIVELY.
   ELEMENT SPIRAL-1.2700 IS DISTORTING EXCESSIVELY.
   ELEMENT SPIRAL-1.2701 IS DISTORTING EXCESSIVELY.
   ELEMENT SPIRAL-1.2702 IS DISTORTING EXCESSIVELY.
   ELEMENT SPIRAL-1.2704 IS DISTORTING EXCESSIVELY.
   ELEMENT SPIRAL-1.2705 IS DISTORTING EXCESSIVELY.
   ELEMENT SPIRAL-1.2708 IS DISTORTING EXCESSIVELY.
   ELEMENT SPIRAL-1.2711 IS DISTORTING EXCESSIVELY.
   ELEMENT SPIRAL-1.2712 IS DISTORTING EXCESSIVELY.
   ELEMENT SPIRAL-1.2717 IS DISTORTING EXCESSIVELY.
   ELEMENT SPIRAL-1.2720 IS DISTORTING EXCESSIVELY.
   ELEMENT SPIRAL-1.2721 IS DISTORTING EXCESSIVELY.
   ELEMENT SPIRAL-1.2724 IS DISTORTING EXCESSIVELY.
   ELEMENT SPIRAL-1.2725 IS DISTORTING EXCESSIVELY.
   ELEMENT SPIRAL-1.2727 IS DISTORTING EXCESSIVELY.
   ELEMENT SPIRAL-1.2728 IS DISTORTING EXCESSIVELY.
   ELEMENT SPIRAL-1.2729 IS DISTORTING EXCESSIVELY.
   ELEMENT SPIRAL-1.2730 IS DISTORTING EXCESSIVELY.
   ELEMENT SPIRAL-1.2731 IS DISTORTING EXCESSIVELY.
   ELEMENT SPIRAL-1.2732 IS DISTORTING EXCESSIVELY.
   ELEMENT SPIRAL-1.2733 IS DISTORTING EXCESSIVELY.
   ELEMENT SPIRAL-1.2734 IS DISTORTING EXCESSIVELY.
   ELEMENT SPIRAL-1.2735 IS DISTORTING EXCESSIVELY.
   ELEMENT SPIRAL-1.2736 IS DISTORTING EXCESSIVELY.
   ELEMENT SPIRAL-1.2737 IS DISTORTING EXCESSIVELY.
   ELEMENT SPIRAL-1.2738 IS DISTORTING EXCESSIVELY.
[...]
 LARGEST INCREMENT OF DISP.        -2.580E-03   AT NODE        248   DOF  1
   INSTANCE: SPIRAL-1                                                                        
 LARGEST CORRECTION TO DISP.        3.225E-04   AT NODE        160   DOF  3
   INSTANCE: SPIRAL-1                                                                        
          FORCE     EQUILIBRIUM NOT ACHIEVED WITHIN TOLERANCE.
 
	SYMMETRIC PURE THREAD-BASED DIRECT SPARSE SOLVER RUNNING ON
 	1 HOST x 1 MPI RANK PER HOST x 1 THREAD PER RANK
        NUMBER OF EQUATIONS:  90774
        NUMBER OF RHS:        1
        NUMBER OF FLOPS:      6.037e+09
        SOLVER ELAPSED TIME:  614ms

               CONVERGENCE CHECKS FOR EQUILIBRIUM ITERATION     2


 AVERAGE FORCE                      2.317E-03   TIME AVG. FORCE       1.059E-03
 LARGEST SCALED RESIDUAL FORCE     -1.282E-03   AT NODE       8416   DOF  2
   INSTANCE: SPIRAL-1                                                                        
  CORRESPONDING RESIDUAL FORCE     -1.282E-03
 LARGEST INCREMENT OF DISP.        -2.581E-03   AT NODE        248   DOF  1
   INSTANCE: SPIRAL-1                                                                        
 LARGEST CORRECTION TO DISP.        8.987E-07   AT NODE        248   DOF  3
   INSTANCE: SPIRAL-1                                                                        
          FORCE     EQUILIBRIUM NOT ACHIEVED WITHIN TOLERANCE.
 
	SYMMETRIC PURE THREAD-BASED DIRECT SPARSE SOLVER RUNNING ON
 	1 HOST x 1 MPI RANK PER HOST x 1 THREAD PER RANK
        NUMBER OF EQUATIONS:  90774
        NUMBER OF RHS:        1
        NUMBER OF FLOPS:      6.037e+09
        SOLVER ELAPSED TIME:  607ms
 

 ***WARNING: THE SYSTEM MATRIX HAS 1 NEGATIVE EIGENVALUES.
             EXPLANATIONS ARE SUGGESTED AFTER THE FIRST OCCURRENCE OF THIS MESSAGE.

               CONVERGENCE CHECKS FOR EQUILIBRIUM ITERATION     3


 AVERAGE FORCE                      2.414E-03   TIME AVG. FORCE       1.062E-03
 LARGEST SCALED RESIDUAL FORCE      7.576E-03   AT NODE      11029   DOF  1
   INSTANCE: SPIRAL-1                                                                        
  CORRESPONDING RESIDUAL FORCE      7.576E-03
 LARGEST INCREMENT OF DISP.        -2.629E-03   AT NODE        248   DOF  1
   INSTANCE: SPIRAL-1                                                                        
 LARGEST CORRECTION TO DISP.       -4.852E-05   AT NODE        248   DOF  1
   INSTANCE: SPIRAL-1                                                                        
          FORCE     EQUILIBRIUM NOT ACHIEVED WITHIN TOLERANCE.
 
	SYMMETRIC PURE THREAD-BASED DIRECT SPARSE SOLVER RUNNING ON
 	1 HOST x 1 MPI RANK PER HOST x 1 THREAD PER RANK
        NUMBER OF EQUATIONS:  90774
        NUMBER OF RHS:        1
        NUMBER OF FLOPS:      6.037e+09
        SOLVER ELAPSED TIME:  549ms

               CONVERGENCE CHECKS FOR EQUILIBRIUM ITERATION     4


 AVERAGE FORCE                      2.319E-03   TIME AVG. FORCE       1.059E-03
 LARGEST SCALED RESIDUAL FORCE     -3.118E-06   AT NODE         40   DOF  1
   INSTANCE: SPIRAL-1                                                                        
  CORRESPONDING RESIDUAL FORCE     -3.118E-06
 LARGEST INCREMENT OF DISP.        -2.628E-03   AT NODE        248   DOF  1
   INSTANCE: SPIRAL-1                                                                        
 LARGEST CORRECTION TO DISP.        1.247E-06   AT NODE        248   DOF  1
   INSTANCE: SPIRAL-1                                                                        
          THE FORCE     EQUILIBRIUM EQUATIONS HAVE CONVERGED
          TIME INCREMENT MAY NOW INCREASE TO    0.120    

 ITERATION SUMMARY FOR THE INCREMENT:   4 TOTAL ITERATIONS, OF WHICH
   0 ARE SEVERE DISCONTINUITY ITERATIONS AND  4 ARE EQUILIBRIUM ITERATIONS.

 TIME INCREMENT COMPLETED  8.018E-02,  FRACTION OF STEP COMPLETED  0.682    
 STEP TIME COMPLETED       0.682    ,  TOTAL TIME COMPLETED        0.682    


  INCREMENT    29 STARTS. ATTEMPT NUMBER  1, TIME INCREMENT  0.120    
 
	SYMMETRIC PURE THREAD-BASED DIRECT SPARSE SOLVER RUNNING ON
 	1 HOST x 1 MPI RANK PER HOST x 1 THREAD PER RANK
        NUMBER OF EQUATIONS:  90774
        NUMBER OF RHS:        1
        NUMBER OF FLOPS:      6.037e+09
        SOLVER ELAPSED TIME:  565ms

               CONVERGENCE CHECKS FOR EQUILIBRIUM ITERATION     1


 AVERAGE FORCE                      6.530E-02   TIME AVG. FORCE       3.274E-03
 LARGEST SCALED RESIDUAL FORCE       1.65       AT NODE      11029   DOF  1
   INSTANCE: SPIRAL-1                                                                        
  CORRESPONDING RESIDUAL FORCE       1.65    
 LARGEST INCREMENT OF DISP.        -3.212E-03   AT NODE        248   DOF  1
   INSTANCE: SPIRAL-1                                                                        
 LARGEST CORRECTION TO DISP.        7.383E-04   AT NODE        301   DOF  3
   INSTANCE: SPIRAL-1                                                                        
          FORCE     EQUILIBRIUM NOT ACHIEVED WITHIN TOLERANCE.
 
	SYMMETRIC PURE THREAD-BASED DIRECT SPARSE SOLVER RUNNING ON
 	1 HOST x 1 MPI RANK PER HOST x 1 THREAD PER RANK
        NUMBER OF EQUATIONS:  90774
        NUMBER OF RHS:        1
        NUMBER OF FLOPS:      6.037e+09
        SOLVER ELAPSED TIME:  557ms

               CONVERGENCE CHECKS FOR EQUILIBRIUM ITERATION     2


 AVERAGE FORCE                      2.562E-03   TIME AVG. FORCE       1.111E-03
 LARGEST SCALED RESIDUAL FORCE      7.053E-03   AT NODE       8665   DOF  2
   INSTANCE: SPIRAL-1                                                                        
  CORRESPONDING RESIDUAL FORCE      7.053E-03
 LARGEST INCREMENT OF DISP.        -3.213E-03   AT NODE        248   DOF  1
   INSTANCE: SPIRAL-1                                                                        
 LARGEST CORRECTION TO DISP.        5.790E-06   AT NODE        248   DOF  3
   INSTANCE: SPIRAL-1                                                                        
          FORCE     EQUILIBRIUM NOT ACHIEVED WITHIN TOLERANCE.
 
	SYMMETRIC PURE THREAD-BASED DIRECT SPARSE SOLVER RUNNING ON
 	1 HOST x 1 MPI RANK PER HOST x 1 THREAD PER RANK
        NUMBER OF EQUATIONS:  90774
        NUMBER OF RHS:        1
        NUMBER OF FLOPS:      6.037e+09
        SOLVER ELAPSED TIME:  566ms
 

 ***WARNING: THE SYSTEM MATRIX HAS 1 NEGATIVE EIGENVALUES.
             EXPLANATIONS ARE SUGGESTED AFTER THE FIRST OCCURRENCE OF THIS MESSAGE.

               CONVERGENCE CHECKS FOR EQUILIBRIUM ITERATION     3


 AVERAGE FORCE                      2.527E-03   TIME AVG. FORCE       1.109E-03
 LARGEST SCALED RESIDUAL FORCE     -2.347E-04   AT NODE       5699   DOF  2
   INSTANCE: SPIRAL-1                                                                        
  CORRESPONDING RESIDUAL FORCE     -2.347E-04
 LARGEST INCREMENT OF DISP.        -3.214E-03   AT NODE        248   DOF  1
   INSTANCE: SPIRAL-1                                                                        
 LARGEST CORRECTION TO DISP.       -1.569E-06   AT NODE        166   DOF  2
   INSTANCE: SPIRAL-1                                                                        
          FORCE     EQUILIBRIUM NOT ACHIEVED WITHIN TOLERANCE.
 
	SYMMETRIC PURE THREAD-BASED DIRECT SPARSE SOLVER RUNNING ON
 	1 HOST x 1 MPI RANK PER HOST x 1 THREAD PER RANK
        NUMBER OF EQUATIONS:  90774
        NUMBER OF RHS:        1
        NUMBER OF FLOPS:      6.037e+09
        SOLVER ELAPSED TIME:  686ms

               CONVERGENCE CHECKS FOR EQUILIBRIUM ITERATION     4


 AVERAGE FORCE                      2.526E-03   TIME AVG. FORCE       1.109E-03
 LARGEST SCALED RESIDUAL FORCE     -3.643E-05   AT NODE       9497   DOF  1
   INSTANCE: SPIRAL-1                                                                        
  CORRESPONDING RESIDUAL FORCE     -3.643E-05
 LARGEST INCREMENT OF DISP.        -3.210E-03   AT NODE        248   DOF  1
   INSTANCE: SPIRAL-1                                                                        
 LARGEST CORRECTION TO DISP.        3.369E-06   AT NODE        248   DOF  1
   INSTANCE: SPIRAL-1                                                                        
          FORCE     EQUILIBRIUM NOT ACHIEVED WITHIN TOLERANCE.
 
	SYMMETRIC PURE THREAD-BASED DIRECT SPARSE SOLVER RUNNING ON
 	1 HOST x 1 MPI RANK PER HOST x 1 THREAD PER RANK
        NUMBER OF EQUATIONS:  90774
        NUMBER OF RHS:        1
        NUMBER OF FLOPS:      6.037e+09
        SOLVER ELAPSED TIME:  582ms

               CONVERGENCE CHECKS FOR EQUILIBRIUM ITERATION     5


 AVERAGE FORCE                      2.527E-03   TIME AVG. FORCE       1.109E-03
 LARGEST SCALED RESIDUAL FORCE      6.604E-07   AT NODE       8767   DOF  1
   INSTANCE: SPIRAL-1                                                                        
  CORRESPONDING RESIDUAL FORCE      6.604E-07
 LARGEST INCREMENT OF DISP.        -3.210E-03   AT NODE        248   DOF  1
   INSTANCE: SPIRAL-1                                                                        
 LARGEST CORRECTION TO DISP.        1.161E-07   AT NODE        248   DOF  1
   INSTANCE: SPIRAL-1                                                                        
          THE FORCE     EQUILIBRIUM EQUATIONS HAVE CONVERGED

 ITERATION SUMMARY FOR THE INCREMENT:   5 TOTAL ITERATIONS, OF WHICH
   0 ARE SEVERE DISCONTINUITY ITERATIONS AND  5 ARE EQUILIBRIUM ITERATIONS.

 TIME INCREMENT COMPLETED  0.120    ,  FRACTION OF STEP COMPLETED  0.802    
 STEP TIME COMPLETED       0.802    ,  TOTAL TIME COMPLETED        0.802    


  INCREMENT    30 STARTS. ATTEMPT NUMBER  1, TIME INCREMENT  0.120    
 
	SYMMETRIC PURE THREAD-BASED DIRECT SPARSE SOLVER RUNNING ON
 	1 HOST x 1 MPI RANK PER HOST x 1 THREAD PER RANK
        NUMBER OF EQUATIONS:  90774
        NUMBER OF RHS:        1
        NUMBER OF FLOPS:      6.037e+09
        SOLVER ELAPSED TIME:  538ms

               CONVERGENCE CHECKS FOR EQUILIBRIUM ITERATION     1


 AVERAGE FORCE                      2.648E-02   TIME AVG. FORCE       1.955E-03
 LARGEST SCALED RESIDUAL FORCE      0.653       AT NODE      11029   DOF  1
   INSTANCE: SPIRAL-1                                                                        
  CORRESPONDING RESIDUAL FORCE      0.653    
 LARGEST INCREMENT OF DISP.        -2.727E-03   AT NODE        248   DOF  1
   INSTANCE: SPIRAL-1                                                                        
 LARGEST CORRECTION TO DISP.        4.877E-04   AT NODE        301   DOF  3
   INSTANCE: SPIRAL-1                                                                        
          FORCE     EQUILIBRIUM NOT ACHIEVED WITHIN TOLERANCE.
 
	SYMMETRIC PURE THREAD-BASED DIRECT SPARSE SOLVER RUNNING ON
 	1 HOST x 1 MPI RANK PER HOST x 1 THREAD PER RANK
        NUMBER OF EQUATIONS:  90774
        NUMBER OF RHS:        1
        NUMBER OF FLOPS:      6.037e+09
        SOLVER ELAPSED TIME:  553ms

               CONVERGENCE CHECKS FOR EQUILIBRIUM ITERATION     2


 AVERAGE FORCE                      2.728E-03   TIME AVG. FORCE       1.163E-03
 LARGEST SCALED RESIDUAL FORCE      3.427E-03   AT NODE       8665   DOF  2
   INSTANCE: SPIRAL-1                                                                        
  CORRESPONDING RESIDUAL FORCE      3.427E-03
 LARGEST INCREMENT OF DISP.        -2.728E-03   AT NODE        248   DOF  1
   INSTANCE: SPIRAL-1                                                                        
 LARGEST CORRECTION TO DISP.        2.270E-06   AT NODE        248   DOF  3
   INSTANCE: SPIRAL-1                                                                        
          FORCE     EQUILIBRIUM NOT ACHIEVED WITHIN TOLERANCE.
 
	SYMMETRIC PURE THREAD-BASED DIRECT SPARSE SOLVER RUNNING ON
 	1 HOST x 1 MPI RANK PER HOST x 1 THREAD PER RANK
        NUMBER OF EQUATIONS:  90774
        NUMBER OF RHS:        1
        NUMBER OF FLOPS:      6.037e+09
        SOLVER ELAPSED TIME:  562ms
 

 ***WARNING: THE SYSTEM MATRIX HAS 1 NEGATIVE EIGENVALUES.
             EXPLANATIONS ARE SUGGESTED AFTER THE FIRST OCCURRENCE OF THIS MESSAGE.

               CONVERGENCE CHECKS FOR EQUILIBRIUM ITERATION     3


 AVERAGE FORCE                      2.723E-03   TIME AVG. FORCE       1.163E-03
 LARGEST SCALED RESIDUAL FORCE      9.572E-05   AT NODE       8774   DOF  2
   INSTANCE: SPIRAL-1                                                                        
  CORRESPONDING RESIDUAL FORCE      9.572E-05
 LARGEST INCREMENT OF DISP.        -2.729E-03   AT NODE        248   DOF  1
   INSTANCE: SPIRAL-1                                                                        
 LARGEST CORRECTION TO DISP.       -1.613E-06   AT NODE        248   DOF  1
   INSTANCE: SPIRAL-1                                                                        
          FORCE     EQUILIBRIUM NOT ACHIEVED WITHIN TOLERANCE.
 
	SYMMETRIC PURE THREAD-BASED DIRECT SPARSE SOLVER RUNNING ON
 	1 HOST x 1 MPI RANK PER HOST x 1 THREAD PER RANK
        NUMBER OF EQUATIONS:  90774
        NUMBER OF RHS:        1
        NUMBER OF FLOPS:      6.037e+09
        SOLVER ELAPSED TIME:  562ms

               CONVERGENCE CHECKS FOR EQUILIBRIUM ITERATION     4


 AVERAGE FORCE                      2.722E-03   TIME AVG. FORCE       1.163E-03
 LARGEST SCALED RESIDUAL FORCE      4.001E-05   AT NODE      11029   DOF  1
   INSTANCE: SPIRAL-1                                                                        
  CORRESPONDING RESIDUAL FORCE      4.001E-05
 LARGEST INCREMENT OF DISP.        -2.726E-03   AT NODE        248   DOF  1
   INSTANCE: SPIRAL-1                                                                        
 LARGEST CORRECTION TO DISP.        3.588E-06   AT NODE        248   DOF  1
   INSTANCE: SPIRAL-1                                                                        
          FORCE     EQUILIBRIUM NOT ACHIEVED WITHIN TOLERANCE.
 
	SYMMETRIC PURE THREAD-BASED DIRECT SPARSE SOLVER RUNNING ON
 	1 HOST x 1 MPI RANK PER HOST x 1 THREAD PER RANK
        NUMBER OF EQUATIONS:  90774
        NUMBER OF RHS:        1
        NUMBER OF FLOPS:      6.037e+09
        SOLVER ELAPSED TIME:  594ms

               CONVERGENCE CHECKS FOR EQUILIBRIUM ITERATION     5


 AVERAGE FORCE                      2.723E-03   TIME AVG. FORCE       1.163E-03
 LARGEST SCALED RESIDUAL FORCE      2.456E-07   AT NODE       8767   DOF  1
   INSTANCE: SPIRAL-1                                                                        
  CORRESPONDING RESIDUAL FORCE      2.456E-07
 LARGEST INCREMENT OF DISP.        -2.726E-03   AT NODE        248   DOF  1
   INSTANCE: SPIRAL-1                                                                        
 LARGEST CORRECTION TO DISP.        1.410E-07   AT NODE        248   DOF  1
   INSTANCE: SPIRAL-1                                                                        
          THE FORCE     EQUILIBRIUM EQUATIONS HAVE CONVERGED

 ITERATION SUMMARY FOR THE INCREMENT:   5 TOTAL ITERATIONS, OF WHICH
   0 ARE SEVERE DISCONTINUITY ITERATIONS AND  5 ARE EQUILIBRIUM ITERATIONS.

 TIME INCREMENT COMPLETED  0.120    ,  FRACTION OF STEP COMPLETED  0.923    
 STEP TIME COMPLETED       0.923    ,  TOTAL TIME COMPLETED        0.923    


  INCREMENT    31 STARTS. ATTEMPT NUMBER  1, TIME INCREMENT  7.745E-02
 
	SYMMETRIC PURE THREAD-BASED DIRECT SPARSE SOLVER RUNNING ON
 	1 HOST x 1 MPI RANK PER HOST x 1 THREAD PER RANK
        NUMBER OF EQUATIONS:  90774
        NUMBER OF RHS:        1
        NUMBER OF FLOPS:      6.037e+09
        SOLVER ELAPSED TIME:  528ms

               CONVERGENCE CHECKS FOR EQUILIBRIUM ITERATION     1


 AVERAGE FORCE                      7.844E-03   TIME AVG. FORCE       1.379E-03
 LARGEST SCALED RESIDUAL FORCE      0.162       AT NODE      11029   DOF  1
   INSTANCE: SPIRAL-1                                                                        
  CORRESPONDING RESIDUAL FORCE      0.162    
 LARGEST INCREMENT OF DISP.        -1.523E-03   AT NODE        248   DOF  1
   INSTANCE: SPIRAL-1                                                                        
 LARGEST CORRECTION TO DISP.        2.319E-04   AT NODE        248   DOF  1
   INSTANCE: SPIRAL-1                                                                        
          FORCE     EQUILIBRIUM NOT ACHIEVED WITHIN TOLERANCE.
 
	SYMMETRIC PURE THREAD-BASED DIRECT SPARSE SOLVER RUNNING ON
 	1 HOST x 1 MPI RANK PER HOST x 1 THREAD PER RANK
        NUMBER OF EQUATIONS:  90774
        NUMBER OF RHS:        1
        NUMBER OF FLOPS:      6.037e+09
        SOLVER ELAPSED TIME:  497ms

               CONVERGENCE CHECKS FOR EQUILIBRIUM ITERATION     2


 AVERAGE FORCE                      2.841E-03   TIME AVG. FORCE       1.217E-03
 LARGEST SCALED RESIDUAL FORCE      3.991E-04   AT NODE       8665   DOF  2
   INSTANCE: SPIRAL-1                                                                        
  CORRESPONDING RESIDUAL FORCE      3.991E-04
 LARGEST INCREMENT OF DISP.        -1.523E-03   AT NODE        248   DOF  1
   INSTANCE: SPIRAL-1                                                                        
 LARGEST CORRECTION TO DISP.        5.599E-07   AT NODE        248   DOF  3
   INSTANCE: SPIRAL-1                                                                        
          FORCE     EQUILIBRIUM NOT ACHIEVED WITHIN TOLERANCE.
 
	SYMMETRIC PURE THREAD-BASED DIRECT SPARSE SOLVER RUNNING ON
 	1 HOST x 1 MPI RANK PER HOST x 1 THREAD PER RANK
        NUMBER OF EQUATIONS:  90774
        NUMBER OF RHS:        1
        NUMBER OF FLOPS:      6.037e+09
        SOLVER ELAPSED TIME:  564ms

               CONVERGENCE CHECKS FOR EQUILIBRIUM ITERATION     3


 AVERAGE FORCE                      2.841E-03   TIME AVG. FORCE       1.217E-03
 LARGEST SCALED RESIDUAL FORCE      5.795E-06   AT NODE       8665   DOF  1
   INSTANCE: SPIRAL-1                                                                        
  CORRESPONDING RESIDUAL FORCE      5.795E-06
 LARGEST INCREMENT OF DISP.        -1.524E-03   AT NODE        248   DOF  1
   INSTANCE: SPIRAL-1                                                                        
 LARGEST CORRECTION TO DISP.       -8.540E-07   AT NODE        248   DOF  1
   INSTANCE: SPIRAL-1                                                                        
          THE FORCE     EQUILIBRIUM EQUATIONS HAVE CONVERGED

 ITERATION SUMMARY FOR THE INCREMENT:   3 TOTAL ITERATIONS, OF WHICH
   0 ARE SEVERE DISCONTINUITY ITERATIONS AND  3 ARE EQUILIBRIUM ITERATIONS.

 TIME INCREMENT COMPLETED  7.745E-02,  FRACTION OF STEP COMPLETED   1.00    
 STEP TIME COMPLETED        1.00    ,  TOTAL TIME COMPLETED         1.00    


          THE ANALYSIS HAS BEEN COMPLETED



     ANALYSIS SUMMARY:
     TOTAL OF         31  INCREMENTS
                       7  CUTBACKS IN AUTOMATIC INCREMENTATION
                     180  ITERATIONS INCLUDING CONTACT ITERATIONS IF PRESENT
                     180  PASSES THROUGH THE EQUATION SOLVER OF WHICH 
                     180  INVOLVE MATRIX DECOMPOSITION, INCLUDING
                       0  DECOMPOSITION(S) OF THE MASS MATRIX
                       1  REORDERING OF EQUATIONS TO MINIMIZE WAVEFRONT
                       0  ADDITIONAL RESIDUAL EVALUATIONS FOR LINE SEARCHES
                       0  ADDITIONAL OPERATOR EVALUATIONS FOR LINE SEARCHES
                       4  WARNING MESSAGES DURING USER INPUT PROCESSING
                      31  WARNING MESSAGES DURING ANALYSIS
                       0  ANALYSIS WARNINGS ARE NUMERICAL PROBLEM MESSAGES
                      29  ANALYSIS WARNINGS ARE NEGATIVE EIGENVALUE MESSAGES
                       0  ERROR MESSAGES



     JOB TIME SUMMARY
       USER TIME (SEC)      =     1.34E+03
       SYSTEM TIME (SEC)    =     1.55E+02
       TOTAL CPU TIME (SEC) =     1.50E+03
       WALLCLOCK TIME (SEC) =          286
       MEMORY PEAK (GB)     =            0
