 Abaqus/Standard 2025                  DATE 10-Feb-2026 TIME 16:08:43
 SUMMARY OF JOB INFORMATION:
 STEP  INC ATT SEVERE EQUIL TOTAL  TOTAL      STEP       INC OF       DOF    IF
               DISCON ITERS ITERS  TIME/    TIME/LPF    TIME/LPF    MONITOR RIKS
               ITERS               FREQ
   1     1   1U    0     2     2  0.00       0.00       1.000     
   1     1   2U    0     2     2  0.00       0.00       0.2500    
   1     1   3U    0     2     2  0.00       0.00       0.06250   
   1     1   4U    0     7     7  0.00       0.00       0.01562   
   1     1   5     0     9     9  0.00391    0.00391    0.003906  
   1     2   1     0     6     6  0.00781    0.00781    0.003906  
   1     3   1     0     4     4  0.0117     0.0117     0.003906  
   1     4   1     0     4     4  0.0156     0.0156     0.003906  
   1     5   1U    0     5     5  0.0156     0.0156     0.005859  
   1     5   2     0     4     4  0.0171     0.0171     0.001465  
   1     6   1     0     4     4  0.0193     0.0193     0.002197  
   1     7   1     0     4     4  0.0226     0.0226     0.003296  
   1     8   1     0     6     6  0.0275     0.0275     0.004944  
   1     9   1     0     6     6  0.0325     0.0325     0.004944  
   1    10   1     0     6     6  0.0374     0.0374     0.004944  
   1    11   1     0     6     6  0.0424     0.0424     0.004944  
   1    12   1     0     4     4  0.0473     0.0473     0.004944  
   1    13   1     0     4     4  0.0522     0.0522     0.004944  
   1    14   1     0     6     6  0.0597     0.0597     0.007416  
   1    15   1     0     6     6  0.0671     0.0671     0.007416  
   1    16   1     0     4     4  0.0745     0.0745     0.007416  
   1    17   1     0     4     4  0.0819     0.0819     0.007416  
   1    18   1     0     6     6  0.0930     0.0930     0.01112   
   1    19   1     0     6     6  0.104      0.104      0.01112   
   1    20   1     0     4     4  0.115      0.115      0.01112   
   1    21   1     0     4     4  0.126      0.126      0.01112   
   1    22   1     0     6     6  0.143      0.143      0.01669   
   1    23   1     0     4     4  0.160      0.160      0.01669   
   1    24   1     0     4     4  0.176      0.176      0.01669   
   1    25   1     0     4     4  0.201      0.201      0.02503   
   1    26   1     0     4     4  0.239      0.239      0.03754   
   1    27   1     0     5     5  0.295      0.295      0.05631   
   1    28   1     0     5     5  0.352      0.352      0.05631   
   1    29   1     0     4     4  0.408      0.408      0.05631   
   1    30   1     0     4     4  0.464      0.464      0.05631   
   1    31   1     0     4     4  0.549      0.549      0.08447   
   1    32   1U    0     5     5  0.549      0.549      0.1267    
   1    32   2     0     3     3  0.580      0.580      0.03168   
   1    33   1     0     2     2  0.628      0.628      0.04751   
   1    34   1     0     4     4  0.699      0.699      0.07127   
   1    35   1     0     4     4  0.806      0.806      0.1069    
   1    36   1     0     4     4  0.966      0.966      0.1604    
   1    37   1     0     2     2  1.00       1.00       0.03351   
                          
 THE ANALYSIS HAS COMPLETED SUCCESSFULLY
