*Heading
** Job name: static_traction_Job-4 Model name: spiral_Model_static_traction
** Generated by: Abaqus/CAE 2025
*Preprint, echo=NO, model=NO, history=NO, contact=NO
**
** PARTS
**
*Part, name=Spiral
*Node
      1,  0.047297854,  0.101040564, 0.00200000009
      2, 0.0473523289,  0.100955017, 0.00200000009
      3, 0.0666595846,   0.10911072, 0.00200000009
      4, 0.0666362196,  0.109209411, 0.00200000009
      5, 0.0473523289,  0.100955017, 0.00249999994
      6, 0.0666595846,   0.10911072, 0.00249999994
      7, 0.0666362196,  0.109209411, 0.00249999994
      8,  0.047297854,  0.101040564, 0.00249999994
      9, 0.0264104586, 0.0822096393, 0.00200000009
     10, 0.0264900047, 0.0821467265, 0.00200000009
     11, 0.0472679734,  0.100901313, 0.00200000009
     12, 0.0472134985,  0.100986853, 0.00200000009
     13, 0.0264900047, 0.0821467265, 0.00249999994
     14, 0.0472679734,  0.100901313, 0.00249999994
     15, 0.0472134985,  0.100986853, 0.00249999994
     16, 0.0264104586, 0.0822096393, 0.00249999994
     17, 0.00835423078, 0.0493457094, 0.00200000009
     18, 0.00845002476,  0.049312409, 0.00200000009
     19, 0.0264279619, 0.0820683017, 0.00200000009
     20, 0.0263484176, 0.0821312144, 0.00200000009
** ... 30238 like lines cut
*Element, type=C3D8R
 1,    1,    2,  334,  373,  415,  417, 4795, 4775
 2,  373,  334,  335,  372, 4775, 4795, 4796, 4776
 3,  372,  335,  336,  371, 4776, 4796, 4797, 4777
 4,  371,  336,  337,  370, 4777, 4797, 4798, 4778
 5,  370,  337,  338,  369, 4778, 4798, 4799, 4779
 6,  369,  338,  339,  368, 4779, 4799, 4800, 4780
 7,  368,  339,  340,  367, 4780, 4800, 4801, 4781
 8,  367,  340,  341,  366, 4781, 4801, 4802, 4782
 9,  366,  341,  342,  365, 4782, 4802, 4803, 4783
10,  365,  342,  343,  364, 4783, 4803, 4804, 4784
11,  364,  343,  344,  363, 4784, 4804, 4805, 4785
12,  363,  344,  345,  362, 4785, 4805, 4806, 4786
13,  362,  345,  346,  361, 4786, 4806, 4807, 4787
14,  361,  346,  347,  360, 4787, 4807, 4808, 4788
15,  360,  347,  348,  359, 4788, 4808, 4809, 4789
16,  359,  348,  349,  358, 4789, 4809, 4810, 4790
17,  358,  349,  350,  357, 4790, 4810, 4811, 4791
18,  357,  350,  351,  356, 4791, 4811, 4812, 4792
19,  356,  351,  352,  355, 4792, 4812, 4813, 4793
20,  355,  352,  353,  354, 4793, 4813, 4814, 4794
** ... 20073 like lines cut
*Nset, nset=a-tape-Set
    1,    2,    3,    4,    5,    6,    7,    8,    9,   10,   11,   12,   13,   14,   15,   16
   17,   18,   19,   20,   21,   22,   23,   24,   25,   26,   27,   28,   29,   30,   31,   32
   33,   34,   35,   36,   37,   38,   39,   40,   41,   42,   43,   44,   45,   46,   47,   48
   49,   50,   51,   52,   79,   80,  104,  105,  129,  130,  171,  172,  176,  177,  178,  189
  190,  191,  202,  203,  204,  215,  216,  217,  228,  229,  230,  334,  335,  336,  337,  338
  339,  340,  341,  342,  343,  344,  345,  346,  347,  348,  349,  350,  351,  352,  353,  354
  355,  356,  357,  358,  359,  360,  361,  362,  363,  364,  365,  366,  367,  368,  369,  370
  371,  372,  373,  374,  375,  376,  377,  378,  379,  380,  381,  382,  383,  384,  385,  386
  387,  388,  389,  390,  391,  392,  393,  394,  395,  396,  397,  398,  399,  400,  401,  402
  403,  404,  405,  406,  407,  408,  409,  410,  411,  412,  413,  414,  415,  416,  417,  418
  419,  420,  421,  422,  423,  424,  425,  426,  427,  428,  429,  430,  431,  432,  433,  434
  435,  436,  437,  438,  439,  440,  441,  442,  443,  444,  445,  446,  447,  448,  449,  450
  451,  452,  453,  454,  455,  456,  457,  458,  459,  460,  461,  462,  463,  464,  465,  466
  467,  468,  469,  470,  471,  472,  473,  474,  475,  476,  477,  478,  479,  480,  481,  482
  483,  484,  485,  486,  487,  488,  489,  490,  491,  492,  493,  494,  495,  496,  497,  498
  499,  500,  501,  502,  503,  504,  505,  506,  507,  508,  509,  510,  511,  512,  513,  514
  515,  516,  517,  518,  519,  520,  521,  522,  523,  524,  525,  526,  527,  528,  529,  530
  531,  532,  533,  534,  535,  536,  537,  538,  539,  540,  541,  542,  543,  544,  545,  546
  547,  548,  549,  550,  551,  552,  553,  554,  555,  556,  557,  558,  559,  560,  561,  562
  563,  564,  565,  566,  567,  568,  569,  570,  571,  572,  573,  574,  575,  576,  577,  578
** ... 46 like lines cut
*Elset, elset=a-tape-Set
    1,    2,    3,    4,    5,    6,    7,    8,    9,   10,   11,   12,   13,   14,   15,   16
   17,   18,   19,   20,   21,   22,   23,   24,   25,   26,   27,   28,   29,   30,   31,   32
   33,   34,   35,   36,   37,   38,   39,   40,   41,   42,   43,   44,   45,   46,   47,   48
   49,   50,   51,   52,   53,   54,   55,   56,   57,   58,   59,   60,   61,   62,   63,   64
   65,   66,   67,   68,   69,   70,   71,   72,   73,   74,   75,   76,   77,   78,   79,   80
   81,   82,   83,   84,   85,   86,   87,   88,   89,   90,   91,   92,   93,   94,   95,   96
   97,   98,   99,  100,  101,  102,  103,  104,  105,  106,  107,  108,  109,  110,  111,  112
  113,  114,  115,  116,  117,  118,  119,  120,  121,  122,  123,  124,  125,  126,  127,  128
  129,  130,  131,  132,  133,  134,  135,  136,  137,  138,  139,  140,  141,  142,  143,  144
  145,  146,  147,  148,  149,  150,  151,  152,  153,  154,  155,  156,  157,  158,  159,  160
  161,  162,  163,  164,  165,  166,  167,  168,  169,  170,  171,  172,  173,  174,  175,  176
  177,  178,  179,  180,  181,  182,  183,  184,  185,  186,  187,  188,  189,  190,  191,  192
  193,  194,  195,  196,  197,  198,  199,  200,  201,  202,  203,  204,  205,  206,  207,  208
  209,  210,  211,  212,  213,  214,  215,  216,  217,  218,  219,  220,  221,  222,  223,  224
  225,  226,  227,  228,  229,  230,  231,  232,  233,  234,  235,  236,  237,  238,  239,  240
  241,  242,  243,  244,  245,  246,  247,  248,  249,  250,  251,  252,  253,  254,  255,  256
  257,  258,  259,  260,  261,  262,  263,  264,  265,  266,  267,  268,  269,  270,  271,  272
  273,  274,  275,  276,  277,  278,  279,  280,  281,  282,  283,  284,  285,  286,  287,  288
  289,  290,  291,  292,  293,  294,  295,  296,  297,  298,  299,  300,  301,  302,  303,  304
  305,  306,  307,  308,  309,  310,  311,  312,  313,  314,  315,  316,  317,  318,  319,  320
  321,  322,  323,  324,  325,  326,  327,  328, 5460, 5461, 5462, 5463, 5498, 5499, 5500, 5501
 5546, 5547, 5548, 5549, 5608, 5609, 5610, 5611, 5688, 5689, 5690, 5691
*Nset, nset=b-tape-Set
    1,    2,    3,    4,    5,    6,    7,    8,    9,   10,   11,   12,   13,   14,   15,   16
   17,   18,   19,   20,   21,   22,   23,   24,   25,   26,   27,   28,   29,   30,   31,   32
   33,   36,   39,   40,   42,   43,   46,   49,   51,   52,   53,   54,   55,   56,   57,   58
   59,   60,   61,   62,   67,   68,   69,   79,   80,   81,   82,   83,   84,   85,   86,   87
   88,   93,   94,  104,  105,  106,  107,  108,  109,  110,  111,  112,  117,  118,  119,  129
  130,  131,  132,  133,  134,  135,  136,  137,  142,  143,  146,  148,  159,  167,  168,  171
  172,  173,  174,  175,  176,  177,  179,  180,  181,  182,  183,  184,  185,  186,  187,  188
  189,  190,  192,  193,  194,  195,  196,  197,  198,  199,  200,  201,  202,  203,  205,  206
  207,  208,  209,  210,  211,  212,  213,  214,  215,  216,  218,  219,  220,  221,  222,  223
  224,  225,  226,  227,  228,  229,  231,  232,  233,  234,  235,  236,  237,  238,  239,  240
  988,  989,  990,  991,  992,  993,  994,  995,  996,  997,  998,  999, 1000, 1001, 1002, 1003
 1004, 1005, 1006, 1007, 1008, 1009, 1010, 1011, 1012, 1013, 1014, 1015, 1016, 1017, 1018, 1019
 1020, 1021, 1022, 1023, 1024, 1025, 1026, 1027, 1028, 1029, 1030, 1031, 1032, 1033, 1034, 1035
 1036, 1037, 1038, 1039, 1040, 1041, 1042, 1043, 1044, 1045, 1046, 1047, 1048, 1095, 1096, 1097
 1098, 1099, 1100, 1101, 1102, 1103, 1104, 1105, 1106, 1107, 1108, 1109, 1110, 1111, 1112, 1113
 1114, 1130, 1131, 1132, 1133, 1134, 1135, 1136, 1137, 1138, 1139, 1140, 1141, 1142, 1143, 1144
 1145, 1146, 1147, 1148, 1149, 1150, 1281, 1282, 1283, 1284, 1285, 1286, 1287, 1288, 1289, 1290
 1291, 1292, 1293, 1294, 1295, 1296, 1297, 1298, 1299, 1300, 1301, 1302, 1303, 1304, 1305, 1306
 1307, 1308, 1309, 1310, 1311, 1312, 1313, 1314, 1315, 1316, 1317, 1318, 1319, 1320, 1321, 1322
 1323, 1324, 1325, 1326, 1327, 1328, 1329, 1330, 1331, 1332, 1333, 1334, 1335, 1336, 1337, 1338
** ... 73 like lines cut
*Elset, elset=b-tape-Set
  329,  330,  331,  332,  333,  334,  335,  336,  337,  338,  339,  340,  341,  342,  343,  344
  345,  346,  347,  348,  349,  350,  351,  352,  353,  354,  355,  356,  357,  358,  359,  360
  361,  362, 1044, 1045, 1046, 1047, 1048, 1049, 1050, 1051, 1052, 1053, 1054, 1055, 1056, 1057
 1058, 1059, 1060, 1061, 1062, 1063, 1064, 1065, 1066, 1067, 1068, 1069, 1070, 1071, 1072, 1073
 1074, 1075, 1076, 1077, 1078, 1079, 1080, 1081, 1082, 1083, 1084, 1085, 1086, 1087, 2549, 2550
 2551, 2552, 2553, 2554, 2555, 2556, 2557, 2558, 2559, 2560, 2561, 2562, 2563, 2564, 2565, 2566
 2567, 2568, 2569, 2570, 2571, 2572, 2573, 2574, 2575, 2576, 2577, 2578, 2579, 2580, 2581, 2582
 2583, 2584, 2585, 2586, 2587, 2588, 2589, 2590, 2591, 2592, 2593, 2594, 2595, 2596, 2597, 2598
 2599, 2600, 2601, 2602, 2603, 2604, 2605, 2606, 4614, 4615, 4616, 4617, 4618, 4619, 4620, 4621
 4622, 4623, 4624, 4625, 4626, 4627, 4628, 4629, 4630, 4631, 4632, 4633, 4634, 4635, 4636, 4637
 4638, 4639, 4640, 4641, 4642, 4643, 4644, 4645, 4646, 4647, 4648, 4649, 4650, 4651, 4652, 4653
 4654, 4655, 4656, 4657, 4658, 4659, 4660, 4661, 4662, 4663, 4664, 4665, 4666, 4667, 4668, 4669
 4670, 4671, 4672, 4673, 4674, 4675, 4676, 4677, 4678, 4679, 4680, 4681, 4682, 4683, 4684, 4685
 4686, 4687, 4688, 4689, 5434, 5435, 5436, 5437, 5438, 5439, 5440, 5441, 5442, 5443, 5444, 5445
 5446, 5447, 5448, 5449, 5450, 5451, 5452, 5453, 5454, 5455, 5456, 5457, 5458, 5459, 5464, 5465
 5466, 5467, 5468, 5469, 5470, 5471, 5472, 5473, 5474, 5475, 5476, 5477, 5478, 5479, 5480, 5481
 5482, 5483, 5484, 5485, 5486, 5487, 5488, 5489, 5490, 5491, 5492, 5493, 5494, 5495, 5496, 5497
 5502, 5503, 5504, 5505, 5506, 5507, 5508, 5509, 5510, 5511, 5512, 5513, 5514, 5515, 5516, 5517
 5518, 5519, 5520, 5521, 5522, 5523, 5524, 5525, 5526, 5527, 5528, 5529, 5530, 5531, 5532, 5533
 5534, 5535, 5536, 5537, 5538, 5539, 5540, 5541, 5542, 5543, 5544, 5545, 5550, 5551, 5552, 5553
** ... 10 like lines cut
*Nset, nset=plywood-Set
     1,     2,     3,     4,     5,     6,     7,     8,     9,    10,    11,    12,    13,    14,    15,    16
    17,    18,    19,    20,    21,    22,    23,    24,    25,    26,    27,    28,    29,    30,    31,    32
    33,    34,    35,    36,    37,    38,    39,    40,    42,    43,    44,    45,    46,    47,    48,    49
    53,    55,    56,    58,    59,    60,    62,    63,    64,    65,    66,    67,    68,    69,    70,    71
    72,    73,    74,    75,    76,    77,    78,    82,    83,    85,    86,    88,    89,    90,    91,    92
    93,    94,    95,    96,    97,    98,    99,   100,   101,   102,   103,   107,   108,   110,   111,   113
   114,   115,   116,   117,   118,   119,   120,   121,   122,   123,   124,   125,   126,   127,   128,   132
   133,   135,   136,   138,   139,   140,   141,   142,   143,   144,   145,   146,   147,   148,   149,   150
   151,   152,   153,   154,   155,   156,   157,   158,   159,   160,   161,   162,   163,   164,   165,   166
   167,   168,   169,   170,   179,   181,   183,   184,   185,   187,   188,   192,   194,   196,   197,   198
   200,   201,   205,   207,   209,   210,   211,   213,   214,   218,   220,   222,   223,   224,   226,   227
   231,   233,   235,   236,   237,   239,   240,   241,   242,   243,   244,   245,   246,   247,   248,   249
   250,   251,   252,   253,   254,   255,   256,   257,   258,   259,   260,   261,   262,   263,   264,   265
   266,   267,   268,   269,   270,   271,   272,   273,   274,   275,   276,   277,   278,   279,   280,   281
   282,   283,   284,   285,   286,   287,   288,   289,   290,   291,   292,   293,   294,   295,   296,   297
   298,   299,   300,   301,   302,   303,   304,   305,   306,   307,   308,   309,   310,   311,   312,   313
   314,   315,   316,   317,   318,   319,   320,   321,   322,   323,   324,   325,   326,   327,   328,   329
   330,   331,   332,   333,   334,   335,   336,   337,   338,   339,   340,   341,   342,   343,   344,   345
   346,   347,   348,   349,   350,   351,   352,   353,   354,   355,   356,   357,   358,   359,   360,   361
   362,   363,   364,   365,   366,   367,   368,   369,   370,   371,   372,   373,   374,   375,   376,   377
** ... 1819 like lines cut
*Elset, elset=plywood-Set
   363,   364,   365,   366,   367,   368,   369,   370,   371,   372,   373,   374,   375,   376,   377,   378
   379,   380,   381,   382,   383,   384,   385,   386,   387,   388,   389,   390,   391,   392,   393,   394
   395,   396,   397,   398,   399,   400,   401,   402,   403,   404,   405,   406,   407,   408,   409,   410
   411,   412,   413,   414,   415,   416,   417,   418,   419,   420,   421,   422,   423,   424,   425,   426
   427,   428,   429,   430,   431,   432,   433,   434,   435,   436,   437,   438,   439,   440,   441,   442
   443,   444,   445,   446,   447,   448,   449,   450,   451,   452,   453,   454,   455,   456,   457,   458
   459,   460,   461,   462,   463,   464,   465,   466,   467,   468,   469,   470,   471,   472,   473,   474
   475,   476,   477,   478,   479,   480,   481,   482,   483,   484,   485,   486,   487,   488,   489,   490
   491,   492,   493,   494,   495,   496,   497,   498,   499,   500,   501,   502,   503,   504,   505,   506
   507,   508,   509,   510,   511,   512,   513,   514,   515,   516,   517,   518,   519,   520,   521,   522
   523,   524,   525,   526,   527,   528,   529,   530,   531,   532,   533,   534,   535,   536,   537,   538
   539,   540,   541,   542,   543,   544,   545,   546,   547,   548,   549,   550,   551,   552,   553,   554
   555,   556,   557,   558,   559,   560,   561,   562,   563,   564,   565,   566,   567,   568,   569,   570
   571,   572,   573,   574,   575,   576,   577,   578,   579,   580,   581,   582,   583,   584,   585,   586
   587,   588,   589,   590,   591,   592,   593,   594,   595,   596,   597,   598,   599,   600,   601,   602
   603,   604,   605,   606,   607,   608,   609,   610,   611,   612,   613,   614,   615,   616,   617,   618
   619,   620,   621,   622,   623,   624,   625,   626,   627,   628,   629,   630,   631,   632,   633,   634
   635,   636,   637,   638,   639,   640,   641,   642,   643,   644,   645,   646,   647,   648,   649,   650
   651,   652,   653,   654,   655,   656,   657,   658,   659,   660,   661,   662,   663,   664,   665,   666
   667,   668,   669,   670,   671,   672,   673,   674,   675,   676,   677,   678,   679,   680,   681,   682
** ... 1185 like lines cut
** Section: tape_Section
*Solid Section, elset=a-tape-Set, material=tape
,
** Section: tape_Section
*Solid Section, elset=b-tape-Set, material=tape
,
** Section: plywood_Section
*Solid Section, elset=plywood-Set, material=plywood
,
*End Part
**  
**
** ASSEMBLY
**
*Assembly, name=Assembly
**  
*Instance, name=Spiral-1, part=Spiral
*End Instance
**  
*Nset, nset=_PickedSet18, internal, instance=Spiral-1
    44,    45,   255,   265,   266,  3363,  3364,  3365,  3366,  3367,  3368,  3369,  3370,  3371,  3372,  3373
  3374,  3375,  3376,  3377,  3378,  3379,  3380,  3381,  3382,  3383,  3384,  3385,  3386,  3387,  3388,  3389
  3390,  3391,  3392,  3393,  3394,  3395,  3396,  3397,  3398,  3399,  3400,  3401,  3402,  3403,  3404,  3405
  3406,  3407,  3408,  3409,  3410,  3411,  3633,  3634,  3635,  3636,  3637,  3638,  3639,  3640,  3641,  3642
  3643,  3644,  3645,  3646,  3647,  3648,  3649,  3650,  3651,  3652,  3653,  3654,  3655,  3656,  3657,  3658
  3659,  3660,  3661,  3662,  3663,  3664,  3665,  3666,  3667,  3668,  3669,  3670,  3671,  3672,  3673,  3674
  3675,  3676,  3677,  3678,  3679,  3680,  3681,  3682,  3683,  3684,  3685,  3686, 14051, 14052, 14053, 14054
 14055, 14056, 14057, 14058, 14059, 14060, 14061, 14062, 14063, 14064, 14065, 14066, 14067, 14068, 14069, 14070
 14071, 14072, 14073, 14074, 14075, 14076, 14077, 14078, 14079, 14080, 14081, 14082, 14083, 14084, 14085, 14086
 14087, 14088, 14089, 14090, 14091, 14092, 14093, 14094, 14095, 14096, 14097, 14098, 14099, 14100, 14101, 14102
 14103, 14104, 14105, 14106, 14107, 14108, 14109, 14110, 14111, 14112, 14113, 14114, 14115, 14116, 14117, 14118
 14119, 14120, 14121, 14122, 14123, 14124, 14125, 14126, 14127, 14128, 14129, 14130, 14131, 14132, 14133, 14134
 14135, 14136, 14137, 14138, 14139, 14140, 14141, 14142, 14143, 14144, 14145, 14146, 14147, 14148, 14149, 14150
*Elset, elset=_PickedSet18, internal, instance=Spiral-1
 10604, 10605, 10606, 10607, 10622, 10626, 10627, 10629, 10630, 10631, 10632, 10634, 10636, 10649, 10650, 10656
 10659, 10660, 10661, 10663, 10693, 10694, 10697, 10698, 10721, 10794, 10800, 11020, 11027, 11080, 11082, 11088
 11089, 11090, 11092, 11093, 11094, 11167, 11172, 11173, 11174, 11175, 11178, 11179, 11180, 11182, 11185, 11186
 11194, 11195, 12040, 12190, 12191, 12192, 12193, 12208, 12212, 12213, 12215, 12216, 12217, 12218, 12220, 12222
 12235, 12236, 12242, 12245, 12246, 12247, 12249, 12279, 12280, 12283, 12284, 12307, 12380, 12386, 12606, 12613
 12666, 12668, 12674, 12675, 12676, 12678, 12679, 12680, 12753, 12758, 12759, 12760, 12761, 12764, 12765, 12766
 12768, 12771, 12772, 12780, 12781, 13626, 13776, 13777, 13778, 13779, 13794, 13798, 13799, 13801, 13802, 13803
 13804, 13806, 13808, 13821, 13822, 13828, 13831, 13832, 13833, 13835, 13865, 13866, 13869, 13870, 13893, 13966
 13972, 14192, 14199, 14252, 14254, 14260, 14261, 14262, 14264, 14265, 14266, 14339, 14344, 14345, 14346, 14347
 14350, 14351, 14352, 14354, 14357, 14358, 14366, 14367, 15212
*Elset, elset=__PickedSurf21_S2, internal, instance=Spiral-1, generate
  8876,  10454,      1
*Surface, type=ELEMENT, name=_PickedSurf21, internal
__PickedSurf21_S2, S2
*End Assembly
** 
** MATERIALS
** 
*Material, name=plywood
*Density
680.,
*Elastic
 7e+09, 0.13
*Material, name=tape
*Density
880.,
*Elastic
 5e+08, 0.34
** ----------------------------------------------------------------
** 
** STEP: Step-1
** 
*Step, name=Step-1, nlgeom=YES
*Static
1., 1., 1e-05, 1.
** 
** BOUNDARY CONDITIONS
** 
** Name: BC-1 Type: Displacement/Rotation
*Boundary
_PickedSet18, 1, 1
_PickedSet18, 2, 2
_PickedSet18, 3, 3
_PickedSet18, 4, 4
_PickedSet18, 5, 5
_PickedSet18, 6, 6
** 
** LOADS
** 
** Name: Load-1   Type: Surface traction
*Dsload
_PickedSurf21, TRVEC, 110., 0., 0., -1.
** 
** OUTPUT REQUESTS
** 
*Restart, write, frequency=0
** 
** FIELD OUTPUT: F-Output-1
** 
*Output, field, variable=PRESELECT
** 
** HISTORY OUTPUT: H-Output-1
** 
*Output, history, variable=PRESELECT
*End Step
