1

   Abaqus 2025                                  Date 10-Feb-2026   Time 17:06:14
   For use by UNIVERSITAET STUTTGART under license from Dassault Systemes or its subsidiary.

                                                                                 
                                                                                 
 STEP    1     INCREMENT     1     STEP TIME    0.00    


                        S T E P       1     S T A T I C   A N A L Y S I S


                                                                                          

     AUTOMATIC TIME CONTROL WITH -
          A SUGGESTED INITIAL TIME INCREMENT OF                 1.00    
          AND A TOTAL TIME PERIOD OF                            1.00    
          THE MINIMUM TIME INCREMENT ALLOWED IS                1.000E-05
          THE MAXIMUM TIME INCREMENT ALLOWED IS                 1.00    

     LINEAR EQUATION SOLVER TYPE         DIRECT SPARSE

 CONVERGENCE TOLERANCE PARAMETERS FOR FORCE    
     CRITERION FOR RESIDUAL FORCE     FOR A NONLINEAR PROBLEM          5.000E-03
     CRITERION FOR DISP.    CORRECTION IN A NONLINEAR PROBLEM          1.000E-02
     INITIAL VALUE OF TIME AVERAGE FORCE                               1.000E-02
     AVERAGE FORCE     IS TIME AVERAGE FORCE    
     ALTERNATE CRIT. FOR RESIDUAL FORCE     FOR A NONLINEAR PROBLEM    2.000E-02
     CRITERION FOR ZERO FORCE     RELATIVE TO TIME AVRG. FORCE         1.000E-05
     CRITERION FOR RESIDUAL FORCE     WHEN THERE IS ZERO FLUX          1.000E-05
     CRITERION FOR DISP.    CORRECTION WHEN THERE IS ZERO FLUX         1.000E-03
     CRITERION FOR RESIDUAL FORCE     FOR A LINEAR INCREMENT           1.000E-08
     FIELD CONVERSION RATIO                                             1.00    
     CRITERION FOR ZERO FORCE     REL. TO TIME AVRG. MAX. FORCE        1.000E-05
     CRITERION FOR ZERO DISP.    RELATIVE TO CHARACTERISTIC LENGTH     1.000E-08

     VOLUMETRIC STRAIN COMPATIBILITY TOLERANCE FOR HYBRID SOLIDS       1.000E-05
     AXIAL STRAIN COMPATIBILITY TOLERANCE FOR HYBRID BEAMS             1.000E-05
     TRANS. SHEAR STRAIN COMPATIBILITY TOLERANCE FOR HYBRID BEAMS      1.000E-05
     SOFT CONTACT CONSTRAINT COMPATIBILITY TOLERANCE FOR P>P0          5.000E-03
     SOFT CONTACT CONSTRAINT COMPATIBILITY TOLERANCE FOR P=0.0         0.100    
     CONTACT FORCE ERROR TOLERANCE FOR CONVERT SDI=YES                 1.00    
     DISPLACEMENT COMPATIBILITY TOLERANCE FOR DCOUP ELEMENTS           1.000E-05
     ROTATION COMPATIBILITY TOLERANCE FOR DCOUP ELEMENTS               1.000E-05

 EQUILIBRIUM WILL BE CHECKED FOR SEVERE DISCONTINUITY ITERATIONS

 TIME INCREMENTATION CONTROL PARAMETERS:
     FIRST EQUILIBRIUM ITERATION FOR CONSECUTIVE DIVERGENCE CHECK              4
     EQUILIBRIUM ITERATION AT WHICH LOG. CONVERGENCE RATE CHECK BEGINS         8
     EQUILIBRIUM ITERATION AFTER WHICH ALTERNATE RESIDUAL IS USED              9
     MAXIMUM EQUILIBRIUM ITERATIONS ALLOWED                                   16
     EQUILIBRIUM ITERATION COUNT FOR CUT-BACK IN NEXT INCREMENT               10
     MAXIMUM EQUILIB. ITERS IN TWO INCREMENTS FOR TIME INCREMENT INCREASE      4
     MAXIMUM ITERATIONS FOR SEVERE DISCONTINUITIES                            50
     MAXIMUM ATTEMPTS ALLOWED IN AN INCREMENT                                  5
     MAXIMUM DISCON. ITERS IN TWO INCREMENTS FOR TIME INCREMENT INCREASE      50
     MAXIMUM CONTACT AUGMENTATIONS FOR *SURFACE BEHAVIOR,AUGMENTED LAGRANGE   50
     CUT-BACK FACTOR AFTER DIVERGENCE                                 0.2500    
     CUT-BACK FACTOR FOR TOO SLOW CONVERGENCE                         0.5000    
     CUT-BACK FACTOR AFTER TOO MANY EQUILIBRIUM ITERATIONS            0.7500    
     CUT-BACK FACTOR AFTER TOO MANY SEVERE DISCONTINUITY ITERATIONS   0.2500    
     CUT-BACK FACTOR AFTER PROBLEMS IN ELEMENT ASSEMBLY               0.2500    
     INCREASE FACTOR AFTER TWO INCREMENTS THAT CONVERGE QUICKLY        1.500    
     MAX. TIME INCREMENT INCREASE FACTOR ALLOWED                       1.500    
     MAX. TIME INCREMENT INCREASE FACTOR ALLOWED (DYNAMICS)            1.250    
     MAX. TIME INCREMENT INCREASE FACTOR ALLOWED (DIFFUSION)           2.000    
     MINIMUM TIME INCREMENT RATIO FOR EXTRAPOLATION TO OCCUR          0.1000    
     MAX. RATIO OF TIME INCREMENT TO STABILITY LIMIT                   1.000    
     FRACTION OF STABILITY LIMIT FOR NEW TIME INCREMENT               0.9500    
     TIME INCREMENT INCREASE FACTOR BEFORE A TIME POINT                1.000    
     GLOBAL STABILIZATION CONTROL IS NOT USED

          PRINT OF INCREMENT NUMBER, TIME, ETC., EVERY    1  INCREMENTS

     THE MAXIMUM NUMBER OF INCREMENTS IN THIS STEP IS                     100

          LARGE DISPLACEMENT THEORY WILL BE USED

     LINEAR EXTRAPOLATION WILL BE USED

     CHARACTERISTIC ELEMENT LENGTH     8.268E-04

     DETAILS REGARDING ACTUAL SOLUTION WAVEFRONT REQUESTED

     DETAILED OUTPUT OF DIAGNOSTICS TO DATABASE REQUESTED

     PRINT OF INCREMENT NUMBER, TIME, ETC., TO THE MESSAGE FILE EVERY     1  INCREMENTS

     COLLECTING MODEL CONSTRAINT INFORMATION FOR OVERCONSTRAINT CHECKS

     COLLECTING STEP CONSTRAINT INFORMATION FOR OVERCONSTRAINT CHECKS


  INCREMENT     1 STARTS. ATTEMPT NUMBER  1, TIME INCREMENT   1.00    
 
	SYMMETRIC PURE THREAD-BASED DIRECT SPARSE SOLVER RUNNING ON
 	1 HOST x 1 MPI RANK PER HOST x 1 THREAD PER RANK
        NUMBER OF EQUATIONS:  90774
        NUMBER OF RHS:        1
        NUMBER OF FLOPS:      6.037e+09
        SOLVER ELAPSED TIME:  521ms
 

 ***WARNING: THE SYSTEM MATRIX HAS 1 NEGATIVE EIGENVALUES.

     NEGATIVE EIGENVALUES MEAN THAT THE SYSTEM MATRIX IS NOT 
     POSITIVE DEFINITE:
     FOR EXAMPLE, A BIFURCATION (BUCKLING) LOAD MAY HAVE BEEN EXCEEDED.

               CONVERGENCE CHECKS FOR EQUILIBRIUM ITERATION     1


 AVERAGE FORCE                      2.113E+05   TIME AVG. FORCE       2.113E+05
 LARGEST SCALED RESIDUAL FORCE     -8.453E+06   AT NODE      10744   DOF  2
   INSTANCE: SPIRAL-1                                                                        
  CORRESPONDING RESIDUAL FORCE     -8.453E+06
 LARGEST INCREMENT OF DISP.          2.25       AT NODE       3156   DOF  3
   INSTANCE: SPIRAL-1                                                                        
 LARGEST CORRECTION TO DISP.         2.25       AT NODE       3156   DOF  3
   INSTANCE: SPIRAL-1                                                                        
          FORCE     EQUILIBRIUM NOT ACHIEVED WITHIN TOLERANCE.
 
	SYMMETRIC PURE THREAD-BASED DIRECT SPARSE SOLVER RUNNING ON
 	1 HOST x 1 MPI RANK PER HOST x 1 THREAD PER RANK
        NUMBER OF EQUATIONS:  90774
        NUMBER OF RHS:        1
        NUMBER OF FLOPS:      6.037e+09
        SOLVER ELAPSED TIME:  473ms
 

 ***WARNING: THE SYSTEM MATRIX HAS 33997 NEGATIVE EIGENVALUES.
             EXPLANATIONS ARE SUGGESTED AFTER THE FIRST OCCURRENCE OF THIS MESSAGE.

 ***WARNING: SOLVER PROBLEM.  ZERO PIVOT WHEN PROCESSING NODE 1623 INSTANCE 
             SPIRAL-1 D.O.F. 1
  Typically a zero pivot is associated with an overconstraint in the model. 
 However, Abaqus was not able to identify any chains of constraints that might 
 lead to an overconstraint at this node. This suggests that the model might be 
 in fact insufficiently constrained in this particular degree of freedom. 
 Please check the constraints used in this model. 


 ***WARNING: SOLVER PROBLEM.  ZERO PIVOT WHEN PROCESSING NODE 1623 INSTANCE 
             SPIRAL-1 D.O.F. 2
  Typically a zero pivot is associated with an overconstraint in the model. 
 However, Abaqus was not able to identify any chains of constraints that might 
 lead to an overconstraint at this node. This suggests that the model might be 
 in fact insufficiently constrained in this particular degree of freedom. 
 Please check the constraints used in this model. 


 ***WARNING: SOLVER PROBLEM.  ZERO PIVOT WHEN PROCESSING NODE 1623 INSTANCE 
             SPIRAL-1 D.O.F. 3
  Typically a zero pivot is associated with an overconstraint in the model. 
 However, Abaqus was not able to identify any chains of constraints that might 
 lead to an overconstraint at this node. This suggests that the model might be 
 in fact insufficiently constrained in this particular degree of freedom. 
 Please check the constraints used in this model. 


 ***WARNING: SOLVER PROBLEM.  ZERO PIVOT WHEN PROCESSING NODE 1625 INSTANCE 
             SPIRAL-1 D.O.F. 1
  Typically a zero pivot is associated with an overconstraint in the model. 
 However, Abaqus was not able to identify any chains of constraints that might 
 lead to an overconstraint at this node. This suggests that the model might be 
 in fact insufficiently constrained in this particular degree of freedom. 
 Please check the constraints used in this model. 


 ***WARNING: SOLVER PROBLEM.  ZERO PIVOT WHEN PROCESSING NODE 1625 INSTANCE 
             SPIRAL-1 D.O.F. 2
  Typically a zero pivot is associated with an overconstraint in the model. 
 However, Abaqus was not able to identify any chains of constraints that might 
 lead to an overconstraint at this node. This suggests that the model might be 
 in fact insufficiently constrained in this particular degree of freedom. 
 Please check the constraints used in this model. 


 ***WARNING: SOLVER PROBLEM.  ZERO PIVOT WHEN PROCESSING NODE 1625 INSTANCE 
             SPIRAL-1 D.O.F. 3
  Typically a zero pivot is associated with an overconstraint in the model. 
 However, Abaqus was not able to identify any chains of constraints that might 
 lead to an overconstraint at this node. This suggests that the model might be 
 in fact insufficiently constrained in this particular degree of freedom. 
 Please check the constraints used in this model. 


 ***WARNING: SOLVER PROBLEM.  ZERO PIVOT WHEN PROCESSING NODE 2056 INSTANCE 
             SPIRAL-1 D.O.F. 1
  Typically a zero pivot is associated with an overconstraint in the model. 
 However, Abaqus was not able to identify any chains of constraints that might 
 lead to an overconstraint at this node. This suggests that the model might be 
 in fact insufficiently constrained in this particular degree of freedom. 
 Please check the constraints used in this model. 


 ***WARNING: SOLVER PROBLEM.  ZERO PIVOT WHEN PROCESSING NODE 2056 INSTANCE 
             SPIRAL-1 D.O.F. 2
  Typically a zero pivot is associated with an overconstraint in the model. 
 However, Abaqus was not able to identify any chains of constraints that might 
 lead to an overconstraint at this node. This suggests that the model might be 
 in fact insufficiently constrained in this particular degree of freedom. 
 Please check the constraints used in this model. 


 ***WARNING: SOLVER PROBLEM.  ZERO PIVOT WHEN PROCESSING NODE 2056 INSTANCE 
             SPIRAL-1 D.O.F. 3
  Typically a zero pivot is associated with an overconstraint in the model. 
 However, Abaqus was not able to identify any chains of constraints that might 
 lead to an overconstraint at this node. This suggests that the model might be 
 in fact insufficiently constrained in this particular degree of freedom. 
 Please check the constraints used in this model. 


 ***WARNING: SOLVER PROBLEM.  ZERO PIVOT WHEN PROCESSING NODE 2055 INSTANCE 
             SPIRAL-1 D.O.F. 1
  Typically a zero pivot is associated with an overconstraint in the model. 
 However, Abaqus was not able to identify any chains of constraints that might 
 lead to an overconstraint at this node. This suggests that the model might be 
 in fact insufficiently constrained in this particular degree of freedom. 
 Please check the constraints used in this model. 


 ***WARNING: SOLVER PROBLEM.  ZERO PIVOT WHEN PROCESSING NODE 2055 INSTANCE 
             SPIRAL-1 D.O.F. 2
  Typically a zero pivot is associated with an overconstraint in the model. 
 However, Abaqus was not able to identify any chains of constraints that might 
 lead to an overconstraint at this node. This suggests that the model might be 
 in fact insufficiently constrained in this particular degree of freedom. 
 Please check the constraints used in this model. 


 ***WARNING: SOLVER PROBLEM.  ZERO PIVOT WHEN PROCESSING NODE 2055 INSTANCE 
             SPIRAL-1 D.O.F. 3
  Typically a zero pivot is associated with an overconstraint in the model. 
 However, Abaqus was not able to identify any chains of constraints that might 
 lead to an overconstraint at this node. This suggests that the model might be 
 in fact insufficiently constrained in this particular degree of freedom. 
 Please check the constraints used in this model. 


 ***WARNING: SOLVER PROBLEM.  ZERO PIVOT WHEN PROCESSING NODE 7627 INSTANCE 
             SPIRAL-1 D.O.F. 1
  Typically a zero pivot is associated with an overconstraint in the model. 
 However, Abaqus was not able to identify any chains of constraints that might 
 lead to an overconstraint at this node. This suggests that the model might be 
 in fact insufficiently constrained in this particular degree of freedom. 
 Please check the constraints used in this model. 


 ***WARNING: SOLVER PROBLEM.  ZERO PIVOT WHEN PROCESSING NODE 7627 INSTANCE 
             SPIRAL-1 D.O.F. 2
  Typically a zero pivot is associated with an overconstraint in the model. 
 However, Abaqus was not able to identify any chains of constraints that might 
 lead to an overconstraint at this node. This suggests that the model might be 
 in fact insufficiently constrained in this particular degree of freedom. 
 Please check the constraints used in this model. 


 ***WARNING: SOLVER PROBLEM.  ZERO PIVOT WHEN PROCESSING NODE 7627 INSTANCE 
             SPIRAL-1 D.O.F. 3
  Typically a zero pivot is associated with an overconstraint in the model. 
 However, Abaqus was not able to identify any chains of constraints that might 
 lead to an overconstraint at this node. This suggests that the model might be 
 in fact insufficiently constrained in this particular degree of freedom. 
 Please check the constraints used in this model. 


 ***WARNING: SOLVER PROBLEM.  ZERO PIVOT WHEN PROCESSING NODE 7628 INSTANCE 
             SPIRAL-1 D.O.F. 1
  Typically a zero pivot is associated with an overconstraint in the model. 
 However, Abaqus was not able to identify any chains of constraints that might 
 lead to an overconstraint at this node. This suggests that the model might be 
 in fact insufficiently constrained in this particular degree of freedom. 
 Please check the constraints used in this model. 


 ***WARNING: SOLVER PROBLEM.  ZERO PIVOT WHEN PROCESSING NODE 7628 INSTANCE 
             SPIRAL-1 D.O.F. 2
  Typically a zero pivot is associated with an overconstraint in the model. 
 However, Abaqus was not able to identify any chains of constraints that might 
 lead to an overconstraint at this node. This suggests that the model might be 
 in fact insufficiently constrained in this particular degree of freedom. 
 Please check the constraints used in this model. 


 ***WARNING: SOLVER PROBLEM.  ZERO PIVOT WHEN PROCESSING NODE 7628 INSTANCE 
             SPIRAL-1 D.O.F. 3
  Typically a zero pivot is associated with an overconstraint in the model. 
 However, Abaqus was not able to identify any chains of constraints that might 
 lead to an overconstraint at this node. This suggests that the model might be 
 in fact insufficiently constrained in this particular degree of freedom. 
 Please check the constraints used in this model. 


 ***WARNING: SOLVER PROBLEM.  ZERO PIVOT WHEN PROCESSING NODE 1643 INSTANCE 
             SPIRAL-1 D.O.F. 1
  Typically a zero pivot is associated with an overconstraint in the model. 
 However, Abaqus was not able to identify any chains of constraints that might 
 lead to an overconstraint at this node. This suggests that the model might be 
 in fact insufficiently constrained in this particular degree of freedom. 
 Please check the constraints used in this model. 


 ***WARNING: SOLVER PROBLEM.  ZERO PIVOT WHEN PROCESSING NODE 1643 INSTANCE 
             SPIRAL-1 D.O.F. 2
  Typically a zero pivot is associated with an overconstraint in the model. 
 However, Abaqus was not able to identify any chains of constraints that might 
 lead to an overconstraint at this node. This suggests that the model might be 
 in fact insufficiently constrained in this particular degree of freedom. 
 Please check the constraints used in this model. 


 ***WARNING: SOLVER PROBLEM.  ZERO PIVOT WHEN PROCESSING NODE 1643 INSTANCE 
             SPIRAL-1 D.O.F. 3
  Typically a zero pivot is associated with an overconstraint in the model. 
 However, Abaqus was not able to identify any chains of constraints that might 
 lead to an overconstraint at this node. This suggests that the model might be 
 in fact insufficiently constrained in this particular degree of freedom. 
 Please check the constraints used in this model. 


 ***WARNING: SOLVER PROBLEM.  ZERO PIVOT WHEN PROCESSING NODE 1644 INSTANCE 
             SPIRAL-1 D.O.F. 1
  Typically a zero pivot is associated with an overconstraint in the model. 
 However, Abaqus was not able to identify any chains of constraints that might 
 lead to an overconstraint at this node. This suggests that the model might be 
 in fact insufficiently constrained in this particular degree of freedom. 
 Please check the constraints used in this model. 


 ***WARNING: SOLVER PROBLEM.  ZERO PIVOT WHEN PROCESSING NODE 1644 INSTANCE 
             SPIRAL-1 D.O.F. 2
  Typically a zero pivot is associated with an overconstraint in the model. 
 However, Abaqus was not able to identify any chains of constraints that might 
 lead to an overconstraint at this node. This suggests that the model might be 
 in fact insufficiently constrained in this particular degree of freedom. 
 Please check the constraints used in this model. 


 ***WARNING: SOLVER PROBLEM.  ZERO PIVOT WHEN PROCESSING NODE 1644 INSTANCE 
             SPIRAL-1 D.O.F. 3
  Typically a zero pivot is associated with an overconstraint in the model. 
 However, Abaqus was not able to identify any chains of constraints that might 
 lead to an overconstraint at this node. This suggests that the model might be 
 in fact insufficiently constrained in this particular degree of freedom. 
 Please check the constraints used in this model. 


 ***WARNING: SOLVER PROBLEM.  ZERO PIVOT WHEN PROCESSING NODE 1624 INSTANCE 
             SPIRAL-1 D.O.F. 1
  Typically a zero pivot is associated with an overconstraint in the model. 
 However, Abaqus was not able to identify any chains of constraints that might 
 lead to an overconstraint at this node. This suggests that the model might be 
 in fact insufficiently constrained in this particular degree of freedom. 
 Please check the constraints used in this model. 


 ***WARNING: SOLVER PROBLEM.  ZERO PIVOT WHEN PROCESSING NODE 1624 INSTANCE 
             SPIRAL-1 D.O.F. 2
  Typically a zero pivot is associated with an overconstraint in the model. 
 However, Abaqus was not able to identify any chains of constraints that might 
 lead to an overconstraint at this node. This suggests that the model might be 
 in fact insufficiently constrained in this particular degree of freedom. 
 Please check the constraints used in this model. 


 ***WARNING: SOLVER PROBLEM.  ZERO PIVOT WHEN PROCESSING NODE 1624 INSTANCE 
             SPIRAL-1 D.O.F. 3
  Typically a zero pivot is associated with an overconstraint in the model. 
 However, Abaqus was not able to identify any chains of constraints that might 
 lead to an overconstraint at this node. This suggests that the model might be 
 in fact insufficiently constrained in this particular degree of freedom. 
 Please check the constraints used in this model. 


 ***WARNING: SOLVER PROBLEM.  ZERO PIVOT WHEN PROCESSING NODE 6715 INSTANCE 
             SPIRAL-1 D.O.F. 1
  Typically a zero pivot is associated with an overconstraint in the model. 
 However, Abaqus was not able to identify any chains of constraints that might 
 lead to an overconstraint at this node. This suggests that the model might be 
 in fact insufficiently constrained in this particular degree of freedom. 
 Please check the constraints used in this model. 


 ***WARNING: SOLVER PROBLEM.  ZERO PIVOT WHEN PROCESSING NODE 6715 INSTANCE 
             SPIRAL-1 D.O.F. 2
  Typically a zero pivot is associated with an overconstraint in the model. 
 However, Abaqus was not able to identify any chains of constraints that might 
 lead to an overconstraint at this node. This suggests that the model might be 
 in fact insufficiently constrained in this particular degree of freedom. 
 Please check the constraints used in this model. 


 ***WARNING: SOLVER PROBLEM.  ZERO PIVOT WHEN PROCESSING NODE 6715 INSTANCE 
             SPIRAL-1 D.O.F. 3
  Typically a zero pivot is associated with an overconstraint in the model. 
 However, Abaqus was not able to identify any chains of constraints that might 
 lead to an overconstraint at this node. This suggests that the model might be 
 in fact insufficiently constrained in this particular degree of freedom. 
 Please check the constraints used in this model. 


 ***WARNING: SOLVER PROBLEM.  ZERO PIVOT WHEN PROCESSING NODE 6743 INSTANCE 
             SPIRAL-1 D.O.F. 1
  Typically a zero pivot is associated with an overconstraint in the model. 
 However, Abaqus was not able to identify any chains of constraints that might 
 lead to an overconstraint at this node. This suggests that the model might be 
 in fact insufficiently constrained in this particular degree of freedom. 
 Please check the constraints used in this model. 


 ***WARNING: SOLVER PROBLEM.  ZERO PIVOT WHEN PROCESSING NODE 6743 INSTANCE 
             SPIRAL-1 D.O.F. 2
  Typically a zero pivot is associated with an overconstraint in the model. 
 However, Abaqus was not able to identify any chains of constraints that might 
 lead to an overconstraint at this node. This suggests that the model might be 
 in fact insufficiently constrained in this particular degree of freedom. 
 Please check the constraints used in this model. 


 ***WARNING: SOLVER PROBLEM.  ZERO PIVOT WHEN PROCESSING NODE 6743 INSTANCE 
             SPIRAL-1 D.O.F. 3
  Typically a zero pivot is associated with an overconstraint in the model. 
 However, Abaqus was not able to identify any chains of constraints that might 
 lead to an overconstraint at this node. This suggests that the model might be 
 in fact insufficiently constrained in this particular degree of freedom. 
 Please check the constraints used in this model. 


 ***WARNING: SOLVER PROBLEM.  ZERO PIVOT WHEN PROCESSING NODE 6716 INSTANCE 
             SPIRAL-1 D.O.F. 1
  Typically a zero pivot is associated with an overconstraint in the model. 
 However, Abaqus was not able to identify any chains of constraints that might 
 lead to an overconstraint at this node. This suggests that the model might be 
 in fact insufficiently constrained in this particular degree of freedom. 
 Please check the constraints used in this model. 


 ***WARNING: SOLVER PROBLEM.  ZERO PIVOT WHEN PROCESSING NODE 6716 INSTANCE 
             SPIRAL-1 D.O.F. 2
  Typically a zero pivot is associated with an overconstraint in the model. 
 However, Abaqus was not able to identify any chains of constraints that might 
 lead to an overconstraint at this node. This suggests that the model might be 
 in fact insufficiently constrained in this particular degree of freedom. 
 Please check the constraints used in this model. 


 ***WARNING: SOLVER PROBLEM.  ZERO PIVOT WHEN PROCESSING NODE 6716 INSTANCE 
             SPIRAL-1 D.O.F. 3
  Typically a zero pivot is associated with an overconstraint in the model. 
 However, Abaqus was not able to identify any chains of constraints that might 
 lead to an overconstraint at this node. This suggests that the model might be 
 in fact insufficiently constrained in this particular degree of freedom. 
 Please check the constraints used in this model. 


 ***WARNING: SOLVER PROBLEM.  ZERO PIVOT WHEN PROCESSING NODE 6744 INSTANCE 
             SPIRAL-1 D.O.F. 1
  Typically a zero pivot is associated with an overconstraint in the model. 
 However, Abaqus was not able to identify any chains of constraints that might 
 lead to an overconstraint at this node. This suggests that the model might be 
 in fact insufficiently constrained in this particular degree of freedom. 
 Please check the constraints used in this model. 


 ***WARNING: SOLVER PROBLEM.  ZERO PIVOT WHEN PROCESSING NODE 6744 INSTANCE 
             SPIRAL-1 D.O.F. 2
  Typically a zero pivot is associated with an overconstraint in the model. 
 However, Abaqus was not able to identify any chains of constraints that might 
 lead to an overconstraint at this node. This suggests that the model might be 
 in fact insufficiently constrained in this particular degree of freedom. 
 Please check the constraints used in this model. 


 ***WARNING: SOLVER PROBLEM.  ZERO PIVOT WHEN PROCESSING NODE 6744 INSTANCE 
             SPIRAL-1 D.O.F. 3
  Typically a zero pivot is associated with an overconstraint in the model. 
 However, Abaqus was not able to identify any chains of constraints that might 
 lead to an overconstraint at this node. This suggests that the model might be 
 in fact insufficiently constrained in this particular degree of freedom. 
 Please check the constraints used in this model. 


 ***WARNING: SOLVER PROBLEM.  ZERO PIVOT WHEN PROCESSING NODE 6717 INSTANCE 
             SPIRAL-1 D.O.F. 1
  Typically a zero pivot is associated with an overconstraint in the model. 
 However, Abaqus was not able to identify any chains of constraints that might 
 lead to an overconstraint at this node. This suggests that the model might be 
 in fact insufficiently constrained in this particular degree of freedom. 
 Please check the constraints used in this model. 


 ***WARNING: SOLVER PROBLEM.  ZERO PIVOT WHEN PROCESSING NODE 6717 INSTANCE 
             SPIRAL-1 D.O.F. 2
  Typically a zero pivot is associated with an overconstraint in the model. 
 However, Abaqus was not able to identify any chains of constraints that might 
 lead to an overconstraint at this node. This suggests that the model might be 
 in fact insufficiently constrained in this particular degree of freedom. 
 Please check the constraints used in this model. 


 ***WARNING: SOLVER PROBLEM.  ZERO PIVOT WHEN PROCESSING NODE 6717 INSTANCE 
             SPIRAL-1 D.O.F. 3
  Typically a zero pivot is associated with an overconstraint in the model. 
 However, Abaqus was not able to identify any chains of constraints that might 
 lead to an overconstraint at this node. This suggests that the model might be 
 in fact insufficiently constrained in this particular degree of freedom. 
 Please check the constraints used in this model. 


 ***WARNING: SOLVER PROBLEM.  ZERO PIVOT WHEN PROCESSING NODE 6745 INSTANCE 
             SPIRAL-1 D.O.F. 1
  Typically a zero pivot is associated with an overconstraint in the model. 
 However, Abaqus was not able to identify any chains of constraints that might 
 lead to an overconstraint at this node. This suggests that the model might be 
 in fact insufficiently constrained in this particular degree of freedom. 
 Please check the constraints used in this model. 


 ***WARNING: SOLVER PROBLEM.  ZERO PIVOT WHEN PROCESSING NODE 6745 INSTANCE 
             SPIRAL-1 D.O.F. 2
  Typically a zero pivot is associated with an overconstraint in the model. 
 However, Abaqus was not able to identify any chains of constraints that might 
 lead to an overconstraint at this node. This suggests that the model might be 
 in fact insufficiently constrained in this particular degree of freedom. 
 Please check the constraints used in this model. 


 ***WARNING: SOLVER PROBLEM.  ZERO PIVOT WHEN PROCESSING NODE 6745 INSTANCE 
             SPIRAL-1 D.O.F. 3
  Typically a zero pivot is associated with an overconstraint in the model. 
 However, Abaqus was not able to identify any chains of constraints that might 
 lead to an overconstraint at this node. This suggests that the model might be 
 in fact insufficiently constrained in this particular degree of freedom. 
 Please check the constraints used in this model. 


 ***WARNING: SOLVER PROBLEM.  ZERO PIVOT WHEN PROCESSING NODE 1336 INSTANCE 
             SPIRAL-1 D.O.F. 1
  Typically a zero pivot is associated with an overconstraint in the model. 
 However, Abaqus was not able to identify any chains of constraints that might 
 lead to an overconstraint at this node. This suggests that the model might be 
 in fact insufficiently constrained in this particular degree of freedom. 
 Please check the constraints used in this model. 


 ***WARNING: SOLVER PROBLEM.  ZERO PIVOT WHEN PROCESSING NODE 1336 INSTANCE 
             SPIRAL-1 D.O.F. 2
  Typically a zero pivot is associated with an overconstraint in the model. 
 However, Abaqus was not able to identify any chains of constraints that might 
 lead to an overconstraint at this node. This suggests that the model might be 
 in fact insufficiently constrained in this particular degree of freedom. 
 Please check the constraints used in this model. 


 ***WARNING: SOLVER PROBLEM.  ZERO PIVOT WHEN PROCESSING NODE 1336 INSTANCE 
             SPIRAL-1 D.O.F. 3
  Typically a zero pivot is associated with an overconstraint in the model. 
 However, Abaqus was not able to identify any chains of constraints that might 
 lead to an overconstraint at this node. This suggests that the model might be 
 in fact insufficiently constrained in this particular degree of freedom. 
 Please check the constraints used in this model. 


 ***WARNING: SOLVER PROBLEM.  ZERO PIVOT WHEN PROCESSING NODE 5683 INSTANCE 
             SPIRAL-1 D.O.F. 1
  Typically a zero pivot is associated with an overconstraint in the model. 
 However, Abaqus was not able to identify any chains of constraints that might 
 lead to an overconstraint at this node. This suggests that the model might be 
 in fact insufficiently constrained in this particular degree of freedom. 
 Please check the constraints used in this model. 


 ***WARNING: Solver problem. Zero pivot when processing D.O.F. 1 of 17 nodes. 
             The nodes have been identified in node set 
             WarnNodeSolvProbZeroPiv_1_1_1_2_1.

 ***WARNING: Solver problem. Zero pivot when processing D.O.F. 2 of 16 nodes. 
             The nodes have been identified in node set 
             WarnNodeSolvProbZeroPiv_2_1_1_2_1.

 ***WARNING: Solver problem. Zero pivot when processing D.O.F. 3 of 16 nodes. 
             The nodes have been identified in node set 
             WarnNodeSolvProbZeroPiv_3_1_1_2_1.
   ELEMENT SPIRAL-1.4 IS DISTORTING EXCESSIVELY.
   ELEMENT SPIRAL-1.5 IS DISTORTING EXCESSIVELY.
   ELEMENT SPIRAL-1.10 IS DISTORTING EXCESSIVELY.
   ELEMENT SPIRAL-1.11 IS DISTORTING EXCESSIVELY.
   ELEMENT SPIRAL-1.15 IS DISTORTING EXCESSIVELY.
   ELEMENT SPIRAL-1.16 IS DISTORTING EXCESSIVELY.
   ELEMENT SPIRAL-1.22 IS DISTORTING EXCESSIVELY.
   ELEMENT SPIRAL-1.23 IS DISTORTING EXCESSIVELY.
   ELEMENT SPIRAL-1.24 IS DISTORTING EXCESSIVELY.
   ELEMENT SPIRAL-1.25 IS DISTORTING EXCESSIVELY.
   ELEMENT SPIRAL-1.26 IS DISTORTING EXCESSIVELY.
   ELEMENT SPIRAL-1.29 IS DISTORTING EXCESSIVELY.
   ELEMENT SPIRAL-1.31 IS DISTORTING EXCESSIVELY.
   ELEMENT SPIRAL-1.33 IS DISTORTING EXCESSIVELY.
   ELEMENT SPIRAL-1.35 IS DISTORTING EXCESSIVELY.
   ELEMENT SPIRAL-1.39 IS DISTORTING EXCESSIVELY.
   ELEMENT SPIRAL-1.40 IS DISTORTING EXCESSIVELY.
   ELEMENT SPIRAL-1.42 IS DISTORTING EXCESSIVELY.
   ELEMENT SPIRAL-1.43 IS DISTORTING EXCESSIVELY.
   ELEMENT SPIRAL-1.47 IS DISTORTING EXCESSIVELY.
   ELEMENT SPIRAL-1.48 IS DISTORTING EXCESSIVELY.
   ELEMENT SPIRAL-1.49 IS DISTORTING EXCESSIVELY.
   ELEMENT SPIRAL-1.50 IS DISTORTING EXCESSIVELY.
   ELEMENT SPIRAL-1.52 IS DISTORTING EXCESSIVELY.
   ELEMENT SPIRAL-1.53 IS DISTORTING EXCESSIVELY.
   ELEMENT SPIRAL-1.54 IS DISTORTING EXCESSIVELY.
   ELEMENT SPIRAL-1.55 IS DISTORTING EXCESSIVELY.
   ELEMENT SPIRAL-1.57 IS DISTORTING EXCESSIVELY.
   ELEMENT SPIRAL-1.58 IS DISTORTING EXCESSIVELY.
   ELEMENT SPIRAL-1.60 IS DISTORTING EXCESSIVELY.
   ELEMENT SPIRAL-1.64 IS DISTORTING EXCESSIVELY.
   ELEMENT SPIRAL-1.65 IS DISTORTING EXCESSIVELY.
   ELEMENT SPIRAL-1.67 IS DISTORTING EXCESSIVELY.
   ELEMENT SPIRAL-1.69 IS DISTORTING EXCESSIVELY.
   ELEMENT SPIRAL-1.70 IS DISTORTING EXCESSIVELY.
   ELEMENT SPIRAL-1.74 IS DISTORTING EXCESSIVELY.
   ELEMENT SPIRAL-1.76 IS DISTORTING EXCESSIVELY.
   ELEMENT SPIRAL-1.77 IS DISTORTING EXCESSIVELY.
   ELEMENT SPIRAL-1.78 IS DISTORTING EXCESSIVELY.
   ELEMENT SPIRAL-1.81 IS DISTORTING EXCESSIVELY.
   ELEMENT SPIRAL-1.83 IS DISTORTING EXCESSIVELY.
   ELEMENT SPIRAL-1.84 IS DISTORTING EXCESSIVELY.
   ELEMENT SPIRAL-1.85 IS DISTORTING EXCESSIVELY.
   ELEMENT SPIRAL-1.88 IS DISTORTING EXCESSIVELY.
   ELEMENT SPIRAL-1.90 IS DISTORTING EXCESSIVELY.
   ELEMENT SPIRAL-1.92 IS DISTORTING EXCESSIVELY.
   ELEMENT SPIRAL-1.93 IS DISTORTING EXCESSIVELY.
   ELEMENT SPIRAL-1.95 IS DISTORTING EXCESSIVELY.
   ELEMENT SPIRAL-1.96 IS DISTORTING EXCESSIVELY.
   ELEMENT SPIRAL-1.99 IS DISTORTING EXCESSIVELY.
   ELEMENT SPIRAL-1.100 IS DISTORTING EXCESSIVELY.
   ELEMENT SPIRAL-1.102 IS DISTORTING EXCESSIVELY.
   ELEMENT SPIRAL-1.104 IS DISTORTING EXCESSIVELY.
   ELEMENT SPIRAL-1.105 IS DISTORTING EXCESSIVELY.
   ELEMENT SPIRAL-1.107 IS DISTORTING EXCESSIVELY.
   ELEMENT SPIRAL-1.112 IS DISTORTING EXCESSIVELY.
   ELEMENT SPIRAL-1.113 IS DISTORTING EXCESSIVELY.
   ELEMENT SPIRAL-1.115 IS DISTORTING EXCESSIVELY.
   ELEMENT SPIRAL-1.116 IS DISTORTING EXCESSIVELY.
   ELEMENT SPIRAL-1.117 IS DISTORTING EXCESSIVELY.
   ELEMENT SPIRAL-1.121 IS DISTORTING EXCESSIVELY.
   ELEMENT SPIRAL-1.123 IS DISTORTING EXCESSIVELY.
   ELEMENT SPIRAL-1.124 IS DISTORTING EXCESSIVELY.
   ELEMENT SPIRAL-1.125 IS DISTORTING EXCESSIVELY.
   ELEMENT SPIRAL-1.126 IS DISTORTING EXCESSIVELY.
   ELEMENT SPIRAL-1.127 IS DISTORTING EXCESSIVELY.
   ELEMENT SPIRAL-1.129 IS DISTORTING EXCESSIVELY.
   ELEMENT SPIRAL-1.132 IS DISTORTING EXCESSIVELY.
   ELEMENT SPIRAL-1.134 IS DISTORTING EXCESSIVELY.
   ELEMENT SPIRAL-1.136 IS DISTORTING EXCESSIVELY.
   ELEMENT SPIRAL-1.138 IS DISTORTING EXCESSIVELY.
   ELEMENT SPIRAL-1.144 IS DISTORTING EXCESSIVELY.
   ELEMENT SPIRAL-1.148 IS DISTORTING EXCESSIVELY.
   ELEMENT SPIRAL-1.149 IS DISTORTING EXCESSIVELY.
   ELEMENT SPIRAL-1.151 IS DISTORTING EXCESSIVELY.
   ELEMENT SPIRAL-1.152 IS DISTORTING EXCESSIVELY.
   ELEMENT SPIRAL-1.153 IS DISTORTING EXCESSIVELY.
   ELEMENT SPIRAL-1.154 IS DISTORTING EXCESSIVELY.
   ELEMENT SPIRAL-1.157 IS DISTORTING EXCESSIVELY.
   ELEMENT SPIRAL-1.158 IS DISTORTING EXCESSIVELY.
   ELEMENT SPIRAL-1.160 IS DISTORTING EXCESSIVELY.
   ELEMENT SPIRAL-1.161 IS DISTORTING EXCESSIVELY.
   ELEMENT SPIRAL-1.162 IS DISTORTING EXCESSIVELY.
   ELEMENT SPIRAL-1.164 IS DISTORTING EXCESSIVELY.
   ELEMENT SPIRAL-1.166 IS DISTORTING EXCESSIVELY.
   ELEMENT SPIRAL-1.167 IS DISTORTING EXCESSIVELY.
   ELEMENT SPIRAL-1.168 IS DISTORTING EXCESSIVELY.
   ELEMENT SPIRAL-1.171 IS DISTORTING EXCESSIVELY.
   ELEMENT SPIRAL-1.178 IS DISTORTING EXCESSIVELY.
   ELEMENT SPIRAL-1.179 IS DISTORTING EXCESSIVELY.
   ELEMENT SPIRAL-1.181 IS DISTORTING EXCESSIVELY.
   ELEMENT SPIRAL-1.183 IS DISTORTING EXCESSIVELY.
   ELEMENT SPIRAL-1.184 IS DISTORTING EXCESSIVELY.
   ELEMENT SPIRAL-1.186 IS DISTORTING EXCESSIVELY.
   ELEMENT SPIRAL-1.187 IS DISTORTING EXCESSIVELY.
   ELEMENT SPIRAL-1.190 IS DISTORTING EXCESSIVELY.
   ELEMENT SPIRAL-1.191 IS DISTORTING EXCESSIVELY.
   ELEMENT SPIRAL-1.192 IS DISTORTING EXCESSIVELY.
   ELEMENT SPIRAL-1.193 IS DISTORTING EXCESSIVELY.
   ELEMENT SPIRAL-1.194 IS DISTORTING EXCESSIVELY.
   ELEMENT SPIRAL-1.195 IS DISTORTING EXCESSIVELY.
   ELEMENT SPIRAL-1.196 IS DISTORTING EXCESSIVELY.
   ELEMENT SPIRAL-1.198 IS DISTORTING EXCESSIVELY.
   ELEMENT SPIRAL-1.199 IS DISTORTING EXCESSIVELY.
   ELEMENT SPIRAL-1.200 IS DISTORTING EXCESSIVELY.
   ELEMENT SPIRAL-1.202 IS DISTORTING EXCESSIVELY.
   ELEMENT SPIRAL-1.203 IS DISTORTING EXCESSIVELY.
   ELEMENT SPIRAL-1.206 IS DISTORTING EXCESSIVELY.
   ELEMENT SPIRAL-1.207 IS DISTORTING EXCESSIVELY.
   ELEMENT SPIRAL-1.208 IS DISTORTING EXCESSIVELY.
   ELEMENT SPIRAL-1.209 IS DISTORTING EXCESSIVELY.
   ELEMENT SPIRAL-1.210 IS DISTORTING EXCESSIVELY.
   ELEMENT SPIRAL-1.211 IS DISTORTING EXCESSIVELY.
   ELEMENT SPIRAL-1.212 IS DISTORTING EXCESSIVELY.
   ELEMENT SPIRAL-1.214 IS DISTORTING EXCESSIVELY.
   ELEMENT SPIRAL-1.216 IS DISTORTING EXCESSIVELY.
   ELEMENT SPIRAL-1.217 IS DISTORTING EXCESSIVELY.
   ELEMENT SPIRAL-1.223 IS DISTORTING EXCESSIVELY.
   ELEMENT SPIRAL-1.225 IS DISTORTING EXCESSIVELY.
   ELEMENT SPIRAL-1.229 IS DISTORTING EXCESSIVELY.
   ELEMENT SPIRAL-1.233 IS DISTORTING EXCESSIVELY.
   ELEMENT SPIRAL-1.234 IS DISTORTING EXCESSIVELY.
   ELEMENT SPIRAL-1.235 IS DISTORTING EXCESSIVELY.
   ELEMENT SPIRAL-1.237 IS DISTORTING EXCESSIVELY.
   ELEMENT SPIRAL-1.238 IS DISTORTING EXCESSIVELY.
   ELEMENT SPIRAL-1.239 IS DISTORTING EXCESSIVELY.
   ELEMENT SPIRAL-1.240 IS DISTORTING EXCESSIVELY.
   ELEMENT SPIRAL-1.242 IS DISTORTING EXCESSIVELY.
   ELEMENT SPIRAL-1.243 IS DISTORTING EXCESSIVELY.
   ELEMENT SPIRAL-1.244 IS DISTORTING EXCESSIVELY.
   ELEMENT SPIRAL-1.245 IS DISTORTING EXCESSIVELY.
   ELEMENT SPIRAL-1.247 IS DISTORTING EXCESSIVELY.
   ELEMENT SPIRAL-1.249 IS DISTORTING EXCESSIVELY.
   ELEMENT SPIRAL-1.252 IS DISTORTING EXCESSIVELY.
   ELEMENT SPIRAL-1.254 IS DISTORTING EXCESSIVELY.
   ELEMENT SPIRAL-1.256 IS DISTORTING EXCESSIVELY.
   ELEMENT SPIRAL-1.257 IS DISTORTING EXCESSIVELY.
   ELEMENT SPIRAL-1.265 IS DISTORTING EXCESSIVELY.
   ELEMENT SPIRAL-1.266 IS DISTORTING EXCESSIVELY.
   ELEMENT SPIRAL-1.268 IS DISTORTING EXCESSIVELY.
   ELEMENT SPIRAL-1.269 IS DISTORTING EXCESSIVELY.
   ELEMENT SPIRAL-1.275 IS DISTORTING EXCESSIVELY.
   ELEMENT SPIRAL-1.278 IS DISTORTING EXCESSIVELY.
   ELEMENT SPIRAL-1.282 IS DISTORTING EXCESSIVELY.
   ELEMENT SPIRAL-1.283 IS DISTORTING EXCESSIVELY.
   ELEMENT SPIRAL-1.286 IS DISTORTING EXCESSIVELY.
   ELEMENT SPIRAL-1.287 IS DISTORTING EXCESSIVELY.
   ELEMENT SPIRAL-1.292 IS DISTORTING EXCESSIVELY.
   ELEMENT SPIRAL-1.295 IS DISTORTING EXCESSIVELY.
   ELEMENT SPIRAL-1.298 IS DISTORTING EXCESSIVELY.
   ELEMENT SPIRAL-1.300 IS DISTORTING EXCESSIVELY.
   ELEMENT SPIRAL-1.302 IS DISTORTING EXCESSIVELY.
   ELEMENT SPIRAL-1.303 IS DISTORTING EXCESSIVELY.
   ELEMENT SPIRAL-1.305 IS DISTORTING EXCESSIVELY.
   ELEMENT SPIRAL-1.307 IS DISTORTING EXCESSIVELY.
   ELEMENT SPIRAL-1.309 IS DISTORTING EXCESSIVELY.
   ELEMENT SPIRAL-1.311 IS DISTORTING EXCESSIVELY.
   ELEMENT SPIRAL-1.313 IS DISTORTING EXCESSIVELY.
   ELEMENT SPIRAL-1.317 IS DISTORTING EXCESSIVELY.
   ELEMENT SPIRAL-1.319 IS DISTORTING EXCESSIVELY.
   ELEMENT SPIRAL-1.321 IS DISTORTING EXCESSIVELY.
   ELEMENT SPIRAL-1.323 IS DISTORTING EXCESSIVELY.
   ELEMENT SPIRAL-1.325 IS DISTORTING EXCESSIVELY.
   ELEMENT SPIRAL-1.327 IS DISTORTING EXCESSIVELY.
   ELEMENT SPIRAL-1.328 IS DISTORTING EXCESSIVELY.
   ELEMENT SPIRAL-1.329 IS DISTORTING EXCESSIVELY.
   ELEMENT SPIRAL-1.330 IS DISTORTING EXCESSIVELY.
   ELEMENT SPIRAL-1.332 IS DISTORTING EXCESSIVELY.
   ELEMENT SPIRAL-1.335 IS DISTORTING EXCESSIVELY.
   ELEMENT SPIRAL-1.337 IS DISTORTING EXCESSIVELY.
   ELEMENT SPIRAL-1.338 IS DISTORTING EXCESSIVELY.
   ELEMENT SPIRAL-1.340 IS DISTORTING EXCESSIVELY.
   ELEMENT SPIRAL-1.341 IS DISTORTING EXCESSIVELY.
   ELEMENT SPIRAL-1.342 IS DISTORTING EXCESSIVELY.
   ELEMENT SPIRAL-1.344 IS DISTORTING EXCESSIVELY.
   ELEMENT SPIRAL-1.346 IS DISTORTING EXCESSIVELY.
   ELEMENT SPIRAL-1.348 IS DISTORTING EXCESSIVELY.
   ELEMENT SPIRAL-1.351 IS DISTORTING EXCESSIVELY.
   ELEMENT SPIRAL-1.354 IS DISTORTING EXCESSIVELY.
   ELEMENT SPIRAL-1.355 IS DISTORTING EXCESSIVELY.
   ELEMENT SPIRAL-1.360 IS DISTORTING EXCESSIVELY.
   ELEMENT SPIRAL-1.363 IS DISTORTING EXCESSIVELY.
   ELEMENT SPIRAL-1.364 IS DISTORTING EXCESSIVELY.
   ELEMENT SPIRAL-1.366 IS DISTORTING EXCESSIVELY.
   ELEMENT SPIRAL-1.367 IS DISTORTING EXCESSIVELY.
   ELEMENT SPIRAL-1.369 IS DISTORTING EXCESSIVELY.
   ELEMENT SPIRAL-1.371 IS DISTORTING EXCESSIVELY.
   ELEMENT SPIRAL-1.373 IS DISTORTING EXCESSIVELY.
   ELEMENT SPIRAL-1.378 IS DISTORTING EXCESSIVELY.
   ELEMENT SPIRAL-1.383 IS DISTORTING EXCESSIVELY.
   ELEMENT SPIRAL-1.388 IS DISTORTING EXCESSIVELY.
   ELEMENT SPIRAL-1.389 IS DISTORTING EXCESSIVELY.
   ELEMENT SPIRAL-1.398 IS DISTORTING EXCESSIVELY.
   ELEMENT SPIRAL-1.400 IS DISTORTING EXCESSIVELY.
   ELEMENT SPIRAL-1.403 IS DISTORTING EXCESSIVELY.
   ELEMENT SPIRAL-1.405 IS DISTORTING EXCESSIVELY.
   ELEMENT SPIRAL-1.406 IS DISTORTING EXCESSIVELY.
   ELEMENT SPIRAL-1.409 IS DISTORTING EXCESSIVELY.
   ELEMENT SPIRAL-1.412 IS DISTORTING EXCESSIVELY.
   ELEMENT SPIRAL-1.413 IS DISTORTING EXCESSIVELY.
   ELEMENT SPIRAL-1.415 IS DISTORTING EXCESSIVELY.
   ELEMENT SPIRAL-1.416 IS DISTORTING EXCESSIVELY.
   ELEMENT SPIRAL-1.418 IS DISTORTING EXCESSIVELY.
   ELEMENT SPIRAL-1.420 IS DISTORTING EXCESSIVELY.
   ELEMENT SPIRAL-1.421 IS DISTORTING EXCESSIVELY.
   ELEMENT SPIRAL-1.424 IS DISTORTING EXCESSIVELY.
   ELEMENT SPIRAL-1.427 IS DISTORTING EXCESSIVELY.
   ELEMENT SPIRAL-1.430 IS DISTORTING EXCESSIVELY.
   ELEMENT SPIRAL-1.431 IS DISTORTING EXCESSIVELY.
   ELEMENT SPIRAL-1.432 IS DISTORTING EXCESSIVELY.
   ELEMENT SPIRAL-1.433 IS DISTORTING EXCESSIVELY.
   ELEMENT SPIRAL-1.434 IS DISTORTING EXCESSIVELY.
   ELEMENT SPIRAL-1.436 IS DISTORTING EXCESSIVELY.
   ELEMENT SPIRAL-1.437 IS DISTORTING EXCESSIVELY.
   ELEMENT SPIRAL-1.441 IS DISTORTING EXCESSIVELY.
   ELEMENT SPIRAL-1.442 IS DISTORTING EXCESSIVELY.
   ELEMENT SPIRAL-1.443 IS DISTORTING EXCESSIVELY.
   ELEMENT SPIRAL-1.444 IS DISTORTING EXCESSIVELY.
   ELEMENT SPIRAL-1.448 IS DISTORTING EXCESSIVELY.
   ELEMENT SPIRAL-1.451 IS DISTORTING EXCESSIVELY.
   ELEMENT SPIRAL-1.452 IS DISTORTING EXCESSIVELY.
   ELEMENT SPIRAL-1.457 IS DISTORTING EXCESSIVELY.
   ELEMENT SPIRAL-1.458 IS DISTORTING EXCESSIVELY.
   ELEMENT SPIRAL-1.461 IS DISTORTING EXCESSIVELY.
   ELEMENT SPIRAL-1.464 IS DISTORTING EXCESSIVELY.
   ELEMENT SPIRAL-1.465 IS DISTORTING EXCESSIVELY.
   ELEMENT SPIRAL-1.470 IS DISTORTING EXCESSIVELY.
   ELEMENT SPIRAL-1.474 IS DISTORTING EXCESSIVELY.
   ELEMENT SPIRAL-1.478 IS DISTORTING EXCESSIVELY.
   ELEMENT SPIRAL-1.484 IS DISTORTING EXCESSIVELY.
   ELEMENT SPIRAL-1.485 IS DISTORTING EXCESSIVELY.
   ELEMENT SPIRAL-1.486 IS DISTORTING EXCESSIVELY.
   ELEMENT SPIRAL-1.488 IS DISTORTING EXCESSIVELY.
   ELEMENT SPIRAL-1.491 IS DISTORTING EXCESSIVELY.
   ELEMENT SPIRAL-1.492 IS DISTORTING EXCESSIVELY.
   ELEMENT SPIRAL-1.494 IS DISTORTING EXCESSIVELY.
   ELEMENT SPIRAL-1.498 IS DISTORTING EXCESSIVELY.
   ELEMENT SPIRAL-1.500 IS DISTORTING EXCESSIVELY.
   ELEMENT SPIRAL-1.503 IS DISTORTING EXCESSIVELY.
   ELEMENT SPIRAL-1.506 IS DISTORTING EXCESSIVELY.
   ELEMENT SPIRAL-1.509 IS DISTORTING EXCESSIVELY.
   ELEMENT SPIRAL-1.510 IS DISTORTING EXCESSIVELY.
   ELEMENT SPIRAL-1.512 IS DISTORTING EXCESSIVELY.
   ELEMENT SPIRAL-1.513 IS DISTORTING EXCESSIVELY.
   ELEMENT SPIRAL-1.514 IS DISTORTING EXCESSIVELY.
   ELEMENT SPIRAL-1.515 IS DISTORTING EXCESSIVELY.
   ELEMENT SPIRAL-1.516 IS DISTORTING EXCESSIVELY.
   ELEMENT SPIRAL-1.517 IS DISTORTING EXCESSIVELY.
   ELEMENT SPIRAL-1.519 IS DISTORTING EXCESSIVELY.
   ELEMENT SPIRAL-1.521 IS DISTORTING EXCESSIVELY.
   ELEMENT SPIRAL-1.522 IS DISTORTING EXCESSIVELY.
   ELEMENT SPIRAL-1.526 IS DISTORTING EXCESSIVELY.
   ELEMENT SPIRAL-1.529 IS DISTORTING EXCESSIVELY.
   ELEMENT SPIRAL-1.530 IS DISTORTING EXCESSIVELY.
   ELEMENT SPIRAL-1.532 IS DISTORTING EXCESSIVELY.
   ELEMENT SPIRAL-1.535 IS DISTORTING EXCESSIVELY.
   ELEMENT SPIRAL-1.536 IS DISTORTING EXCESSIVELY.
   ELEMENT SPIRAL-1.540 IS DISTORTING EXCESSIVELY.
   ELEMENT SPIRAL-1.542 IS DISTORTING EXCESSIVELY.
   ELEMENT SPIRAL-1.546 IS DISTORTING EXCESSIVELY.
   ELEMENT SPIRAL-1.547 IS DISTORTING EXCESSIVELY.
   ELEMENT SPIRAL-1.549 IS DISTORTING EXCESSIVELY.
   ELEMENT SPIRAL-1.550 IS DISTORTING EXCESSIVELY.
   ELEMENT SPIRAL-1.551 IS DISTORTING EXCESSIVELY.
   ELEMENT SPIRAL-1.552 IS DISTORTING EXCESSIVELY.
   ELEMENT SPIRAL-1.553 IS DISTORTING EXCESSIVELY.
   ELEMENT SPIRAL-1.557 IS DISTORTING EXCESSIVELY.
   ELEMENT SPIRAL-1.558 IS DISTORTING EXCESSIVELY.
   ELEMENT SPIRAL-1.563 IS DISTORTING EXCESSIVELY.
   ELEMENT SPIRAL-1.564 IS DISTORTING EXCESSIVELY.
   ELEMENT SPIRAL-1.565 IS DISTORTING EXCESSIVELY.
   ELEMENT SPIRAL-1.566 IS DISTORTING EXCESSIVELY.
   ELEMENT SPIRAL-1.568 IS DISTORTING EXCESSIVELY.
   ELEMENT SPIRAL-1.570 IS DISTORTING EXCESSIVELY.
   ELEMENT SPIRAL-1.571 IS DISTORTING EXCESSIVELY.
   ELEMENT SPIRAL-1.572 IS DISTORTING EXCESSIVELY.
   ELEMENT SPIRAL-1.573 IS DISTORTING EXCESSIVELY.
   ELEMENT SPIRAL-1.574 IS DISTORTING EXCESSIVELY.
   ELEMENT SPIRAL-1.575 IS DISTORTING EXCESSIVELY.
   ELEMENT SPIRAL-1.576 IS DISTORTING EXCESSIVELY.
   ELEMENT SPIRAL-1.577 IS DISTORTING EXCESSIVELY.
   ELEMENT SPIRAL-1.579 IS DISTORTING EXCESSIVELY.
   ELEMENT SPIRAL-1.581 IS DISTORTING EXCESSIVELY.
   ELEMENT SPIRAL-1.582 IS DISTORTING EXCESSIVELY.
   ELEMENT SPIRAL-1.584 IS DISTORTING EXCESSIVELY.
   ELEMENT SPIRAL-1.588 IS DISTORTING EXCESSIVELY.
   ELEMENT SPIRAL-1.589 IS DISTORTING EXCESSIVELY.
   ELEMENT SPIRAL-1.591 IS DISTORTING EXCESSIVELY.
   ELEMENT SPIRAL-1.593 IS DISTORTING EXCESSIVELY.
   ELEMENT SPIRAL-1.597 IS DISTORTING EXCESSIVELY.
   ELEMENT SPIRAL-1.598 IS DISTORTING EXCESSIVELY.
   ELEMENT SPIRAL-1.599 IS DISTORTING EXCESSIVELY.
   ELEMENT SPIRAL-1.600 IS DISTORTING EXCESSIVELY.
   ELEMENT SPIRAL-1.603 IS DISTORTING EXCESSIVELY.
   ELEMENT SPIRAL-1.606 IS DISTORTING EXCESSIVELY.
   ELEMENT SPIRAL-1.609 IS DISTORTING EXCESSIVELY.
   ELEMENT SPIRAL-1.611 IS DISTORTING EXCESSIVELY.
   ELEMENT SPIRAL-1.612 IS DISTORTING EXCESSIVELY.
   ELEMENT SPIRAL-1.613 IS DISTORTING EXCESSIVELY.
   ELEMENT SPIRAL-1.615 IS DISTORTING EXCESSIVELY.
   ELEMENT SPIRAL-1.617 IS DISTORTING EXCESSIVELY.
   ELEMENT SPIRAL-1.618 IS DISTORTING EXCESSIVELY.
   ELEMENT SPIRAL-1.623 IS DISTORTING EXCESSIVELY.
   ELEMENT SPIRAL-1.628 IS DISTORTING EXCESSIVELY.
   ELEMENT SPIRAL-1.629 IS DISTORTING EXCESSIVELY.
   ELEMENT SPIRAL-1.631 IS DISTORTING EXCESSIVELY.
   ELEMENT SPIRAL-1.634 IS DISTORTING EXCESSIVELY.
   ELEMENT SPIRAL-1.635 IS DISTORTING EXCESSIVELY.
   ELEMENT SPIRAL-1.637 IS DISTORTING EXCESSIVELY.
   ELEMENT SPIRAL-1.639 IS DISTORTING EXCESSIVELY.
   ELEMENT SPIRAL-1.640 IS DISTORTING EXCESSIVELY.
   ELEMENT SPIRAL-1.641 IS DISTORTING EXCESSIVELY.
   ELEMENT SPIRAL-1.644 IS DISTORTING EXCESSIVELY.
   ELEMENT SPIRAL-1.645 IS DISTORTING EXCESSIVELY.
   ELEMENT SPIRAL-1.647 IS DISTORTING EXCESSIVELY.
   ELEMENT SPIRAL-1.648 IS DISTORTING EXCESSIVELY.
   ELEMENT SPIRAL-1.649 IS DISTORTING EXCESSIVELY.
   ELEMENT SPIRAL-1.650 IS DISTORTING EXCESSIVELY.
   ELEMENT SPIRAL-1.651 IS DISTORTING EXCESSIVELY.
   ELEMENT SPIRAL-1.652 IS DISTORTING EXCESSIVELY.
   ELEMENT SPIRAL-1.653 IS DISTORTING EXCESSIVELY.
   ELEMENT SPIRAL-1.655 IS DISTORTING EXCESSIVELY.
   ELEMENT SPIRAL-1.657 IS DISTORTING EXCESSIVELY.
   ELEMENT SPIRAL-1.658 IS DISTORTING EXCESSIVELY.
   ELEMENT SPIRAL-1.661 IS DISTORTING EXCESSIVELY.
   ELEMENT SPIRAL-1.662 IS DISTORTING EXCESSIVELY.
   ELEMENT SPIRAL-1.665 IS DISTORTING EXCESSIVELY.
   ELEMENT SPIRAL-1.666 IS DISTORTING EXCESSIVELY.
   ELEMENT SPIRAL-1.668 IS DISTORTING EXCESSIVELY.
   ELEMENT SPIRAL-1.670 IS DISTORTING EXCESSIVELY.
   ELEMENT SPIRAL-1.672 IS DISTORTING EXCESSIVELY.
   ELEMENT SPIRAL-1.673 IS DISTORTING EXCESSIVELY.
   ELEMENT SPIRAL-1.675 IS DISTORTING EXCESSIVELY.
   ELEMENT SPIRAL-1.676 IS DISTORTING EXCESSIVELY.
   ELEMENT SPIRAL-1.680 IS DISTORTING EXCESSIVELY.
   ELEMENT SPIRAL-1.684 IS DISTORTING EXCESSIVELY.
   ELEMENT SPIRAL-1.685 IS DISTORTING EXCESSIVELY.
   ELEMENT SPIRAL-1.686 IS DISTORTING EXCESSIVELY.
   ELEMENT SPIRAL-1.690 IS DISTORTING EXCESSIVELY.
   ELEMENT SPIRAL-1.691 IS DISTORTING EXCESSIVELY.
   ELEMENT SPIRAL-1.693 IS DISTORTING EXCESSIVELY.
   ELEMENT SPIRAL-1.695 IS DISTORTING EXCESSIVELY.
   ELEMENT SPIRAL-1.697 IS DISTORTING EXCESSIVELY.
   ELEMENT SPIRAL-1.700 IS DISTORTING EXCESSIVELY.
   ELEMENT SPIRAL-1.701 IS DISTORTING EXCESSIVELY.
   ELEMENT SPIRAL-1.702 IS DISTORTING EXCESSIVELY.
   ELEMENT SPIRAL-1.708 IS DISTORTING EXCESSIVELY.
   ELEMENT SPIRAL-1.709 IS DISTORTING EXCESSIVELY.
   ELEMENT SPIRAL-1.711 IS DISTORTING EXCESSIVELY.
   ELEMENT SPIRAL-1.712 IS DISTORTING EXCESSIVELY.
   ELEMENT SPIRAL-1.714 IS DISTORTING EXCESSIVELY.
   ELEMENT SPIRAL-1.715 IS DISTORTING EXCESSIVELY.
   ELEMENT SPIRAL-1.723 IS DISTORTING EXCESSIVELY.
   ELEMENT SPIRAL-1.725 IS DISTORTING EXCESSIVELY.
   ELEMENT SPIRAL-1.727 IS DISTORTING EXCESSIVELY.
   ELEMENT SPIRAL-1.729 IS DISTORTING EXCESSIVELY.
   ELEMENT SPIRAL-1.732 IS DISTORTING EXCESSIVELY.
   ELEMENT SPIRAL-1.736 IS DISTORTING EXCESSIVELY.
   ELEMENT SPIRAL-1.737 IS DISTORTING EXCESSIVELY.
   ELEMENT SPIRAL-1.738 IS DISTORTING EXCESSIVELY.
   ELEMENT SPIRAL-1.740 IS DISTORTING EXCESSIVELY.
   ELEMENT SPIRAL-1.741 IS DISTORTING EXCESSIVELY.
   ELEMENT SPIRAL-1.742 IS DISTORTING EXCESSIVELY.
   ELEMENT SPIRAL-1.743 IS DISTORTING EXCESSIVELY.
   ELEMENT SPIRAL-1.744 IS DISTORTING EXCESSIVELY.
   ELEMENT SPIRAL-1.746 IS DISTORTING EXCESSIVELY.
   ELEMENT SPIRAL-1.749 IS DISTORTING EXCESSIVELY.
   ELEMENT SPIRAL-1.753 IS DISTORTING EXCESSIVELY.
   ELEMENT SPIRAL-1.755 IS DISTORTING EXCESSIVELY.
   ELEMENT SPIRAL-1.756 IS DISTORTING EXCESSIVELY.
   ELEMENT SPIRAL-1.758 IS DISTORTING EXCESSIVELY.
   ELEMENT SPIRAL-1.759 IS DISTORTING EXCESSIVELY.
   ELEMENT SPIRAL-1.761 IS DISTORTING EXCESSIVELY.
   ELEMENT SPIRAL-1.762 IS DISTORTING EXCESSIVELY.
   ELEMENT SPIRAL-1.763 IS DISTORTING EXCESSIVELY.
   ELEMENT SPIRAL-1.764 IS DISTORTING EXCESSIVELY.
   ELEMENT SPIRAL-1.765 IS DISTORTING EXCESSIVELY.
   ELEMENT SPIRAL-1.767 IS DISTORTING EXCESSIVELY.
   ELEMENT SPIRAL-1.773 IS DISTORTING EXCESSIVELY.
   ELEMENT SPIRAL-1.777 IS DISTORTING EXCESSIVELY.
   ELEMENT SPIRAL-1.778 IS DISTORTING EXCESSIVELY.
   ELEMENT SPIRAL-1.780 IS DISTORTING EXCESSIVELY.
   ELEMENT SPIRAL-1.785 IS DISTORTING EXCESSIVELY.
   ELEMENT SPIRAL-1.787 IS DISTORTING EXCESSIVELY.
   ELEMENT SPIRAL-1.790 IS DISTORTING EXCESSIVELY.
   ELEMENT SPIRAL-1.791 IS DISTORTING EXCESSIVELY.
   ELEMENT SPIRAL-1.792 IS DISTORTING EXCESSIVELY.
   ELEMENT SPIRAL-1.793 IS DISTORTING EXCESSIVELY.
   ELEMENT SPIRAL-1.796 IS DISTORTING EXCESSIVELY.
   ELEMENT SPIRAL-1.798 IS DISTORTING EXCESSIVELY.
   ELEMENT SPIRAL-1.800 IS DISTORTING EXCESSIVELY.
   ELEMENT SPIRAL-1.801 IS DISTORTING EXCESSIVELY.
   ELEMENT SPIRAL-1.802 IS DISTORTING EXCESSIVELY.
   ELEMENT SPIRAL-1.803 IS DISTORTING EXCESSIVELY.
   ELEMENT SPIRAL-1.805 IS DISTORTING EXCESSIVELY.
   ELEMENT SPIRAL-1.808 IS DISTORTING EXCESSIVELY.
   ELEMENT SPIRAL-1.809 IS DISTORTING EXCESSIVELY.
   ELEMENT SPIRAL-1.811 IS DISTORTING EXCESSIVELY.
   ELEMENT SPIRAL-1.812 IS DISTORTING EXCESSIVELY.
   ELEMENT SPIRAL-1.814 IS DISTORTING EXCESSIVELY.
   ELEMENT SPIRAL-1.816 IS DISTORTING EXCESSIVELY.
   ELEMENT SPIRAL-1.818 IS DISTORTING EXCESSIVELY.
   ELEMENT SPIRAL-1.820 IS DISTORTING EXCESSIVELY.
   ELEMENT SPIRAL-1.822 IS DISTORTING EXCESSIVELY.
   ELEMENT SPIRAL-1.824 IS DISTORTING EXCESSIVELY.
   ELEMENT SPIRAL-1.825 IS DISTORTING EXCESSIVELY.
   ELEMENT SPIRAL-1.826 IS DISTORTING EXCESSIVELY.
   ELEMENT SPIRAL-1.830 IS DISTORTING EXCESSIVELY.
   ELEMENT SPIRAL-1.831 IS DISTORTING EXCESSIVELY.
   ELEMENT SPIRAL-1.832 IS DISTORTING EXCESSIVELY.
   ELEMENT SPIRAL-1.835 IS DISTORTING EXCESSIVELY.
   ELEMENT SPIRAL-1.836 IS DISTORTING EXCESSIVELY.
   ELEMENT SPIRAL-1.837 IS DISTORTING EXCESSIVELY.
   ELEMENT SPIRAL-1.839 IS DISTORTING EXCESSIVELY.
   ELEMENT SPIRAL-1.840 IS DISTORTING EXCESSIVELY.
   ELEMENT SPIRAL-1.841 IS DISTORTING EXCESSIVELY.
   ELEMENT SPIRAL-1.843 IS DISTORTING EXCESSIVELY.
   ELEMENT SPIRAL-1.845 IS DISTORTING EXCESSIVELY.
   ELEMENT SPIRAL-1.848 IS DISTORTING EXCESSIVELY.
   ELEMENT SPIRAL-1.849 IS DISTORTING EXCESSIVELY.
   ELEMENT SPIRAL-1.850 IS DISTORTING EXCESSIVELY.
   ELEMENT SPIRAL-1.852 IS DISTORTING EXCESSIVELY.
   ELEMENT SPIRAL-1.854 IS DISTORTING EXCESSIVELY.
   ELEMENT SPIRAL-1.855 IS DISTORTING EXCESSIVELY.
   ELEMENT SPIRAL-1.856 IS DISTORTING EXCESSIVELY.
   ELEMENT SPIRAL-1.859 IS DISTORTING EXCESSIVELY.
   ELEMENT SPIRAL-1.860 IS DISTORTING EXCESSIVELY.
   ELEMENT SPIRAL-1.861 IS DISTORTING EXCESSIVELY.
   ELEMENT SPIRAL-1.862 IS DISTORTING EXCESSIVELY.
   ELEMENT SPIRAL-1.863 IS DISTORTING EXCESSIVELY.
   ELEMENT SPIRAL-1.865 IS DISTORTING EXCESSIVELY.
   ELEMENT SPIRAL-1.866 IS DISTORTING EXCESSIVELY.
   ELEMENT SPIRAL-1.868 IS DISTORTING EXCESSIVELY.
   ELEMENT SPIRAL-1.869 IS DISTORTING EXCESSIVELY.
   ELEMENT SPIRAL-1.875 IS DISTORTING EXCESSIVELY.
   ELEMENT SPIRAL-1.876 IS DISTORTING EXCESSIVELY.
   ELEMENT SPIRAL-1.879 IS DISTORTING EXCESSIVELY.
   ELEMENT SPIRAL-1.880 IS DISTORTING EXCESSIVELY.
   ELEMENT SPIRAL-1.882 IS DISTORTING EXCESSIVELY.
   ELEMENT SPIRAL-1.885 IS DISTORTING EXCESSIVELY.
   ELEMENT SPIRAL-1.887 IS DISTORTING EXCESSIVELY.
   ELEMENT SPIRAL-1.892 IS DISTORTING EXCESSIVELY.
   ELEMENT SPIRAL-1.893 IS DISTORTING EXCESSIVELY.
   ELEMENT SPIRAL-1.894 IS DISTORTING EXCESSIVELY.
   ELEMENT SPIRAL-1.895 IS DISTORTING EXCESSIVELY.
   ELEMENT SPIRAL-1.896 IS DISTORTING EXCESSIVELY.
   ELEMENT SPIRAL-1.897 IS DISTORTING EXCESSIVELY.
   ELEMENT SPIRAL-1.902 IS DISTORTING EXCESSIVELY.
   ELEMENT SPIRAL-1.904 IS DISTORTING EXCESSIVELY.
   ELEMENT SPIRAL-1.905 IS DISTORTING EXCESSIVELY.
   ELEMENT SPIRAL-1.910 IS DISTORTING EXCESSIVELY.
   ELEMENT SPIRAL-1.912 IS DISTORTING EXCESSIVELY.
   ELEMENT SPIRAL-1.915 IS DISTORTING EXCESSIVELY.
   ELEMENT SPIRAL-1.916 IS DISTORTING EXCESSIVELY.
   ELEMENT SPIRAL-1.917 IS DISTORTING EXCESSIVELY.
   ELEMENT SPIRAL-1.922 IS DISTORTING EXCESSIVELY.
   ELEMENT SPIRAL-1.925 IS DISTORTING EXCESSIVELY.
   ELEMENT SPIRAL-1.926 IS DISTORTING EXCESSIVELY.
   ELEMENT SPIRAL-1.927 IS DISTORTING EXCESSIVELY.
   ELEMENT SPIRAL-1.929 IS DISTORTING EXCESSIVELY.
   ELEMENT SPIRAL-1.932 IS DISTORTING EXCESSIVELY.
   ELEMENT SPIRAL-1.933 IS DISTORTING EXCESSIVELY.
   ELEMENT SPIRAL-1.937 IS DISTORTING EXCESSIVELY.
   ELEMENT SPIRAL-1.942 IS DISTORTING EXCESSIVELY.
   ELEMENT SPIRAL-1.946 IS DISTORTING EXCESSIVELY.
   ELEMENT SPIRAL-1.947 IS DISTORTING EXCESSIVELY.
   ELEMENT SPIRAL-1.950 IS DISTORTING EXCESSIVELY.
   ELEMENT SPIRAL-1.954 IS DISTORTING EXCESSIVELY.
   ELEMENT SPIRAL-1.955 IS DISTORTING EXCESSIVELY.
   ELEMENT SPIRAL-1.957 IS DISTORTING EXCESSIVELY.
   ELEMENT SPIRAL-1.958 IS DISTORTING EXCESSIVELY.
   ELEMENT SPIRAL-1.960 IS DISTORTING EXCESSIVELY.
   ELEMENT SPIRAL-1.961 IS DISTORTING EXCESSIVELY.
   ELEMENT SPIRAL-1.963 IS DISTORTING EXCESSIVELY.
   ELEMENT SPIRAL-1.965 IS DISTORTING EXCESSIVELY.
   ELEMENT SPIRAL-1.966 IS DISTORTING EXCESSIVELY.
   ELEMENT SPIRAL-1.967 IS DISTORTING EXCESSIVELY.
   ELEMENT SPIRAL-1.968 IS DISTORTING EXCESSIVELY.
   ELEMENT SPIRAL-1.972 IS DISTORTING EXCESSIVELY.
   ELEMENT SPIRAL-1.973 IS DISTORTING EXCESSIVELY.
   ELEMENT SPIRAL-1.975 IS DISTORTING EXCESSIVELY.
   ELEMENT SPIRAL-1.979 IS DISTORTING EXCESSIVELY.
   ELEMENT SPIRAL-1.981 IS DISTORTING EXCESSIVELY.
   ELEMENT SPIRAL-1.983 IS DISTORTING EXCESSIVELY.
   ELEMENT SPIRAL-1.984 IS DISTORTING EXCESSIVELY.
   ELEMENT SPIRAL-1.987 IS DISTORTING EXCESSIVELY.
   ELEMENT SPIRAL-1.991 IS DISTORTING EXCESSIVELY.
   ELEMENT SPIRAL-1.992 IS DISTORTING EXCESSIVELY.
   ELEMENT SPIRAL-1.995 IS DISTORTING EXCESSIVELY.
   ELEMENT SPIRAL-1.997 IS DISTORTING EXCESSIVELY.
   ELEMENT SPIRAL-1.998 IS DISTORTING EXCESSIVELY.
   ELEMENT SPIRAL-1.1000 IS DISTORTING EXCESSIVELY.
   ELEMENT SPIRAL-1.1006 IS DISTORTING EXCESSIVELY.
   ELEMENT SPIRAL-1.1010 IS DISTORTING EXCESSIVELY.
   ELEMENT SPIRAL-1.1014 IS DISTORTING EXCESSIVELY.
   ELEMENT SPIRAL-1.1017 IS DISTORTING EXCESSIVELY.
   ELEMENT SPIRAL-1.1018 IS DISTORTING EXCESSIVELY.
   ELEMENT SPIRAL-1.1020 IS DISTORTING EXCESSIVELY.
   ELEMENT SPIRAL-1.1021 IS DISTORTING EXCESSIVELY.
   ELEMENT SPIRAL-1.1022 IS DISTORTING EXCESSIVELY.
   ELEMENT SPIRAL-1.1024 IS DISTORTING EXCESSIVELY.
   ELEMENT SPIRAL-1.1027 IS DISTORTING EXCESSIVELY.
   ELEMENT SPIRAL-1.1028 IS DISTORTING EXCESSIVELY.
   ELEMENT SPIRAL-1.1029 IS DISTORTING EXCESSIVELY.
   ELEMENT SPIRAL-1.1030 IS DISTORTING EXCESSIVELY.
   ELEMENT SPIRAL-1.1032 IS DISTORTING EXCESSIVELY.
   ELEMENT SPIRAL-1.1036 IS DISTORTING EXCESSIVELY.
   ELEMENT SPIRAL-1.1037 IS DISTORTING EXCESSIVELY.
   ELEMENT SPIRAL-1.1038 IS DISTORTING EXCESSIVELY.
   ELEMENT SPIRAL-1.1039 IS DISTORTING EXCESSIVELY.
   ELEMENT SPIRAL-1.1041 IS DISTORTING EXCESSIVELY.
   ELEMENT SPIRAL-1.1045 IS DISTORTING EXCESSIVELY.
   ELEMENT SPIRAL-1.1049 IS DISTORTING EXCESSIVELY.
   ELEMENT SPIRAL-1.1051 IS DISTORTING EXCESSIVELY.
   ELEMENT SPIRAL-1.1056 IS DISTORTING EXCESSIVELY.
   ELEMENT SPIRAL-1.1057 IS DISTORTING EXCESSIVELY.
   ELEMENT SPIRAL-1.1058 IS DISTORTING EXCESSIVELY.
   ELEMENT SPIRAL-1.1059 IS DISTORTING EXCESSIVELY.
   ELEMENT SPIRAL-1.1060 IS DISTORTING EXCESSIVELY.
   ELEMENT SPIRAL-1.1061 IS DISTORTING EXCESSIVELY.
   ELEMENT SPIRAL-1.1062 IS DISTORTING EXCESSIVELY.
   ELEMENT SPIRAL-1.1067 IS DISTORTING EXCESSIVELY.
   ELEMENT SPIRAL-1.1070 IS DISTORTING EXCESSIVELY.
   ELEMENT SPIRAL-1.1071 IS DISTORTING EXCESSIVELY.
   ELEMENT SPIRAL-1.1073 IS DISTORTING EXCESSIVELY.
   ELEMENT SPIRAL-1.1074 IS DISTORTING EXCESSIVELY.
   ELEMENT SPIRAL-1.1076 IS DISTORTING EXCESSIVELY.
   ELEMENT SPIRAL-1.1078 IS DISTORTING EXCESSIVELY.
   ELEMENT SPIRAL-1.1082 IS DISTORTING EXCESSIVELY.
   ELEMENT SPIRAL-1.1083 IS DISTORTING EXCESSIVELY.
   ELEMENT SPIRAL-1.1086 IS DISTORTING EXCESSIVELY.
   ELEMENT SPIRAL-1.1088 IS DISTORTING EXCESSIVELY.
   ELEMENT SPIRAL-1.1089 IS DISTORTING EXCESSIVELY.
   ELEMENT SPIRAL-1.1094 IS DISTORTING EXCESSIVELY.
   ELEMENT SPIRAL-1.1095 IS DISTORTING EXCESSIVELY.
   ELEMENT SPIRAL-1.1096 IS DISTORTING EXCESSIVELY.
   ELEMENT SPIRAL-1.1097 IS DISTORTING EXCESSIVELY.
   ELEMENT SPIRAL-1.1101 IS DISTORTING EXCESSIVELY.
   ELEMENT SPIRAL-1.1102 IS DISTORTING EXCESSIVELY.
   ELEMENT SPIRAL-1.1103 IS DISTORTING EXCESSIVELY.
   ELEMENT SPIRAL-1.1104 IS DISTORTING EXCESSIVELY.
   ELEMENT SPIRAL-1.1107 IS DISTORTING EXCESSIVELY.
   ELEMENT SPIRAL-1.1114 IS DISTORTING EXCESSIVELY.
   ELEMENT SPIRAL-1.1116 IS DISTORTING EXCESSIVELY.
   ELEMENT SPIRAL-1.1119 IS DISTORTING EXCESSIVELY.
   ELEMENT SPIRAL-1.1121 IS DISTORTING EXCESSIVELY.
   ELEMENT SPIRAL-1.1123 IS DISTORTING EXCESSIVELY.
   ELEMENT SPIRAL-1.1124 IS DISTORTING EXCESSIVELY.
   ELEMENT SPIRAL-1.1125 IS DISTORTING EXCESSIVELY.
   ELEMENT SPIRAL-1.1126 IS DISTORTING EXCESSIVELY.
   ELEMENT SPIRAL-1.1128 IS DISTORTING EXCESSIVELY.
   ELEMENT SPIRAL-1.1130 IS DISTORTING EXCESSIVELY.
   ELEMENT SPIRAL-1.1132 IS DISTORTING EXCESSIVELY.
   ELEMENT SPIRAL-1.1133 IS DISTORTING EXCESSIVELY.
   ELEMENT SPIRAL-1.1135 IS DISTORTING EXCESSIVELY.
   ELEMENT SPIRAL-1.1137 IS DISTORTING EXCESSIVELY.
   ELEMENT SPIRAL-1.1138 IS DISTORTING EXCESSIVELY.
   ELEMENT SPIRAL-1.1139 IS DISTORTING EXCESSIVELY.
   ELEMENT SPIRAL-1.1141 IS DISTORTING EXCESSIVELY.
   ELEMENT SPIRAL-1.1143 IS DISTORTING EXCESSIVELY.
   ELEMENT SPIRAL-1.1148 IS DISTORTING EXCESSIVELY.
   ELEMENT SPIRAL-1.1149 IS DISTORTING EXCESSIVELY.
   ELEMENT SPIRAL-1.1153 IS DISTORTING EXCESSIVELY.
   ELEMENT SPIRAL-1.1154 IS DISTORTING EXCESSIVELY.
   ELEMENT SPIRAL-1.1155 IS DISTORTING EXCESSIVELY.
   ELEMENT SPIRAL-1.1158 IS DISTORTING EXCESSIVELY.
   ELEMENT SPIRAL-1.1159 IS DISTORTING EXCESSIVELY.
   ELEMENT SPIRAL-1.1162 IS DISTORTING EXCESSIVELY.
   ELEMENT SPIRAL-1.1163 IS DISTORTING EXCESSIVELY.
   ELEMENT SPIRAL-1.1164 IS DISTORTING EXCESSIVELY.
   ELEMENT SPIRAL-1.1166 IS DISTORTING EXCESSIVELY.
   ELEMENT SPIRAL-1.1167 IS DISTORTING EXCESSIVELY.
   ELEMENT SPIRAL-1.1168 IS DISTORTING EXCESSIVELY.
   ELEMENT SPIRAL-1.1170 IS DISTORTING EXCESSIVELY.
   ELEMENT SPIRAL-1.1173 IS DISTORTING EXCESSIVELY.
   ELEMENT SPIRAL-1.1176 IS DISTORTING EXCESSIVELY.
   ELEMENT SPIRAL-1.1177 IS DISTORTING EXCESSIVELY.
   ELEMENT SPIRAL-1.1180 IS DISTORTING EXCESSIVELY.
   ELEMENT SPIRAL-1.1188 IS DISTORTING EXCESSIVELY.
   ELEMENT SPIRAL-1.1190 IS DISTORTING EXCESSIVELY.
   ELEMENT SPIRAL-1.1191 IS DISTORTING EXCESSIVELY.
   ELEMENT SPIRAL-1.1193 IS DISTORTING EXCESSIVELY.
   ELEMENT SPIRAL-1.1194 IS DISTORTING EXCESSIVELY.
   ELEMENT SPIRAL-1.1195 IS DISTORTING EXCESSIVELY.
   ELEMENT SPIRAL-1.1198 IS DISTORTING EXCESSIVELY.
   ELEMENT SPIRAL-1.1200 IS DISTORTING EXCESSIVELY.
   ELEMENT SPIRAL-1.1201 IS DISTORTING EXCESSIVELY.
   ELEMENT SPIRAL-1.1203 IS DISTORTING EXCESSIVELY.
   ELEMENT SPIRAL-1.1204 IS DISTORTING EXCESSIVELY.
   ELEMENT SPIRAL-1.1209 IS DISTORTING EXCESSIVELY.
   ELEMENT SPIRAL-1.1210 IS DISTORTING EXCESSIVELY.
   ELEMENT SPIRAL-1.1216 IS DISTORTING EXCESSIVELY.
   ELEMENT SPIRAL-1.1217 IS DISTORTING EXCESSIVELY.
   ELEMENT SPIRAL-1.1218 IS DISTORTING EXCESSIVELY.
   ELEMENT SPIRAL-1.1219 IS DISTORTING EXCESSIVELY.
   ELEMENT SPIRAL-1.1220 IS DISTORTING EXCESSIVELY.
   ELEMENT SPIRAL-1.1221 IS DISTORTING EXCESSIVELY.
   ELEMENT SPIRAL-1.1223 IS DISTORTING EXCESSIVELY.
   ELEMENT SPIRAL-1.1225 IS DISTORTING EXCESSIVELY.
   ELEMENT SPIRAL-1.1228 IS DISTORTING EXCESSIVELY.
   ELEMENT SPIRAL-1.1229 IS DISTORTING EXCESSIVELY.
   ELEMENT SPIRAL-1.1232 IS DISTORTING EXCESSIVELY.
   ELEMENT SPIRAL-1.1238 IS DISTORTING EXCESSIVELY.
   ELEMENT SPIRAL-1.1241 IS DISTORTING EXCESSIVELY.
   ELEMENT SPIRAL-1.1243 IS DISTORTING EXCESSIVELY.
   ELEMENT SPIRAL-1.1245 IS DISTORTING EXCESSIVELY.
   ELEMENT SPIRAL-1.1247 IS DISTORTING EXCESSIVELY.
   ELEMENT SPIRAL-1.1250 IS DISTORTING EXCESSIVELY.
   ELEMENT SPIRAL-1.1253 IS DISTORTING EXCESSIVELY.
   ELEMENT SPIRAL-1.1254 IS DISTORTING EXCESSIVELY.
   ELEMENT SPIRAL-1.1256 IS DISTORTING EXCESSIVELY.
   ELEMENT SPIRAL-1.1257 IS DISTORTING EXCESSIVELY.
   ELEMENT SPIRAL-1.1259 IS DISTORTING EXCESSIVELY.
   ELEMENT SPIRAL-1.1260 IS DISTORTING EXCESSIVELY.
   ELEMENT SPIRAL-1.1261 IS DISTORTING EXCESSIVELY.
   ELEMENT SPIRAL-1.1264 IS DISTORTING EXCESSIVELY.
   ELEMENT SPIRAL-1.1270 IS DISTORTING EXCESSIVELY.
   ELEMENT SPIRAL-1.1275 IS DISTORTING EXCESSIVELY.
   ELEMENT SPIRAL-1.1276 IS DISTORTING EXCESSIVELY.
   ELEMENT SPIRAL-1.1278 IS DISTORTING EXCESSIVELY.
   ELEMENT SPIRAL-1.1279 IS DISTORTING EXCESSIVELY.
   ELEMENT SPIRAL-1.1280 IS DISTORTING EXCESSIVELY.
   ELEMENT SPIRAL-1.1281 IS DISTORTING EXCESSIVELY.
   ELEMENT SPIRAL-1.1282 IS DISTORTING EXCESSIVELY.
   ELEMENT SPIRAL-1.1283 IS DISTORTING EXCESSIVELY.
   ELEMENT SPIRAL-1.1287 IS DISTORTING EXCESSIVELY.
   ELEMENT SPIRAL-1.1288 IS DISTORTING EXCESSIVELY.
   ELEMENT SPIRAL-1.1289 IS DISTORTING EXCESSIVELY.
   ELEMENT SPIRAL-1.1291 IS DISTORTING EXCESSIVELY.
   ELEMENT SPIRAL-1.1293 IS DISTORTING EXCESSIVELY.
   ELEMENT SPIRAL-1.1296 IS DISTORTING EXCESSIVELY.
   ELEMENT SPIRAL-1.1297 IS DISTORTING EXCESSIVELY.
   ELEMENT SPIRAL-1.1298 IS DISTORTING EXCESSIVELY.
   ELEMENT SPIRAL-1.1301 IS DISTORTING EXCESSIVELY.
   ELEMENT SPIRAL-1.1302 IS DISTORTING EXCESSIVELY.
   ELEMENT SPIRAL-1.1304 IS DISTORTING EXCESSIVELY.
   ELEMENT SPIRAL-1.1306 IS DISTORTING EXCESSIVELY.
   ELEMENT SPIRAL-1.1309 IS DISTORTING EXCESSIVELY.
   ELEMENT SPIRAL-1.1313 IS DISTORTING EXCESSIVELY.
   ELEMENT SPIRAL-1.1314 IS DISTORTING EXCESSIVELY.
   ELEMENT SPIRAL-1.1315 IS DISTORTING EXCESSIVELY.
   ELEMENT SPIRAL-1.1316 IS DISTORTING EXCESSIVELY.
   ELEMENT SPIRAL-1.1317 IS DISTORTING EXCESSIVELY.
   ELEMENT SPIRAL-1.1321 IS DISTORTING EXCESSIVELY.
   ELEMENT SPIRAL-1.1324 IS DISTORTING EXCESSIVELY.
   ELEMENT SPIRAL-1.1325 IS DISTORTING EXCESSIVELY.
   ELEMENT SPIRAL-1.1329 IS DISTORTING EXCESSIVELY.
   ELEMENT SPIRAL-1.1330 IS DISTORTING EXCESSIVELY.
   ELEMENT SPIRAL-1.1332 IS DISTORTING EXCESSIVELY.
   ELEMENT SPIRAL-1.1334 IS DISTORTING EXCESSIVELY.
   ELEMENT SPIRAL-1.1335 IS DISTORTING EXCESSIVELY.
   ELEMENT SPIRAL-1.1336 IS DISTORTING EXCESSIVELY.
   ELEMENT SPIRAL-1.1337 IS DISTORTING EXCESSIVELY.
   ELEMENT SPIRAL-1.1339 IS DISTORTING EXCESSIVELY.
   ELEMENT SPIRAL-1.1341 IS DISTORTING EXCESSIVELY.
   ELEMENT SPIRAL-1.1342 IS DISTORTING EXCESSIVELY.
   ELEMENT SPIRAL-1.1343 IS DISTORTING EXCESSIVELY.
   ELEMENT SPIRAL-1.1345 IS DISTORTING EXCESSIVELY.
   ELEMENT SPIRAL-1.1346 IS DISTORTING EXCESSIVELY.
   ELEMENT SPIRAL-1.1348 IS DISTORTING EXCESSIVELY.
   ELEMENT SPIRAL-1.1352 IS DISTORTING EXCESSIVELY.
   ELEMENT SPIRAL-1.1353 IS DISTORTING EXCESSIVELY.
   ELEMENT SPIRAL-1.1355 IS DISTORTING EXCESSIVELY.
   ELEMENT SPIRAL-1.1359 IS DISTORTING EXCESSIVELY.
   ELEMENT SPIRAL-1.1361 IS DISTORTING EXCESSIVELY.
   ELEMENT SPIRAL-1.1362 IS DISTORTING EXCESSIVELY.
   ELEMENT SPIRAL-1.1364 IS DISTORTING EXCESSIVELY.
   ELEMENT SPIRAL-1.1365 IS DISTORTING EXCESSIVELY.
   ELEMENT SPIRAL-1.1368 IS DISTORTING EXCESSIVELY.
   ELEMENT SPIRAL-1.1369 IS DISTORTING EXCESSIVELY.
   ELEMENT SPIRAL-1.1370 IS DISTORTING EXCESSIVELY.
   ELEMENT SPIRAL-1.1371 IS DISTORTING EXCESSIVELY.
   ELEMENT SPIRAL-1.1372 IS DISTORTING EXCESSIVELY.
   ELEMENT SPIRAL-1.1376 IS DISTORTING EXCESSIVELY.
   ELEMENT SPIRAL-1.1379 IS DISTORTING EXCESSIVELY.
   ELEMENT SPIRAL-1.1380 IS DISTORTING EXCESSIVELY.
   ELEMENT SPIRAL-1.1383 IS DISTORTING EXCESSIVELY.
   ELEMENT SPIRAL-1.1384 IS DISTORTING EXCESSIVELY.
   ELEMENT SPIRAL-1.1386 IS DISTORTING EXCESSIVELY.
   ELEMENT SPIRAL-1.1387 IS DISTORTING EXCESSIVELY.
   ELEMENT SPIRAL-1.1390 IS DISTORTING EXCESSIVELY.
   ELEMENT SPIRAL-1.1391 IS DISTORTING EXCESSIVELY.
   ELEMENT SPIRAL-1.1392 IS DISTORTING EXCESSIVELY.
   ELEMENT SPIRAL-1.1393 IS DISTORTING EXCESSIVELY.
   ELEMENT SPIRAL-1.1394 IS DISTORTING EXCESSIVELY.
   ELEMENT SPIRAL-1.1397 IS DISTORTING EXCESSIVELY.
   ELEMENT SPIRAL-1.1398 IS DISTORTING EXCESSIVELY.
   ELEMENT SPIRAL-1.1400 IS DISTORTING EXCESSIVELY.
   ELEMENT SPIRAL-1.1403 IS DISTORTING EXCESSIVELY.
   ELEMENT SPIRAL-1.1404 IS DISTORTING EXCESSIVELY.
   ELEMENT SPIRAL-1.1407 IS DISTORTING EXCESSIVELY.
   ELEMENT SPIRAL-1.1408 IS DISTORTING EXCESSIVELY.
   ELEMENT SPIRAL-1.1409 IS DISTORTING EXCESSIVELY.
   ELEMENT SPIRAL-1.1410 IS DISTORTING EXCESSIVELY.
   ELEMENT SPIRAL-1.1411 IS DISTORTING EXCESSIVELY.
   ELEMENT SPIRAL-1.1413 IS DISTORTING EXCESSIVELY.
   ELEMENT SPIRAL-1.1414 IS DISTORTING EXCESSIVELY.
   ELEMENT SPIRAL-1.1416 IS DISTORTING EXCESSIVELY.
   ELEMENT SPIRAL-1.1417 IS DISTORTING EXCESSIVELY.
   ELEMENT SPIRAL-1.1421 IS DISTORTING EXCESSIVELY.
   ELEMENT SPIRAL-1.1423 IS DISTORTING EXCESSIVELY.
   ELEMENT SPIRAL-1.1427 IS DISTORTING EXCESSIVELY.
   ELEMENT SPIRAL-1.1428 IS DISTORTING EXCESSIVELY.
   ELEMENT SPIRAL-1.1429 IS DISTORTING EXCESSIVELY.
   ELEMENT SPIRAL-1.1431 IS DISTORTING EXCESSIVELY.
   ELEMENT SPIRAL-1.1432 IS DISTORTING EXCESSIVELY.
   ELEMENT SPIRAL-1.1433 IS DISTORTING EXCESSIVELY.
   ELEMENT SPIRAL-1.1434 IS DISTORTING EXCESSIVELY.
   ELEMENT SPIRAL-1.1435 IS DISTORTING EXCESSIVELY.
   ELEMENT SPIRAL-1.1437 IS DISTORTING EXCESSIVELY.
   ELEMENT SPIRAL-1.1438 IS DISTORTING EXCESSIVELY.
   ELEMENT SPIRAL-1.1439 IS DISTORTING EXCESSIVELY.
   ELEMENT SPIRAL-1.1440 IS DISTORTING EXCESSIVELY.
   ELEMENT SPIRAL-1.1449 IS DISTORTING EXCESSIVELY.
   ELEMENT SPIRAL-1.1450 IS DISTORTING EXCESSIVELY.
   ELEMENT SPIRAL-1.1451 IS DISTORTING EXCESSIVELY.
   ELEMENT SPIRAL-1.1452 IS DISTORTING EXCESSIVELY.
   ELEMENT SPIRAL-1.1453 IS DISTORTING EXCESSIVELY.
   ELEMENT SPIRAL-1.1454 IS DISTORTING EXCESSIVELY.
   ELEMENT SPIRAL-1.1457 IS DISTORTING EXCESSIVELY.
   ELEMENT SPIRAL-1.1458 IS DISTORTING EXCESSIVELY.
   ELEMENT SPIRAL-1.1459 IS DISTORTING EXCESSIVELY.
   ELEMENT SPIRAL-1.1460 IS DISTORTING EXCESSIVELY.
   ELEMENT SPIRAL-1.1461 IS DISTORTING EXCESSIVELY.
   ELEMENT SPIRAL-1.1463 IS DISTORTING EXCESSIVELY.
   ELEMENT SPIRAL-1.1464 IS DISTORTING EXCESSIVELY.
   ELEMENT SPIRAL-1.1467 IS DISTORTING EXCESSIVELY.
   ELEMENT SPIRAL-1.1468 IS DISTORTING EXCESSIVELY.
   ELEMENT SPIRAL-1.1470 IS DISTORTING EXCESSIVELY.
   ELEMENT SPIRAL-1.1471 IS DISTORTING EXCESSIVELY.
   ELEMENT SPIRAL-1.1472 IS DISTORTING EXCESSIVELY.
   ELEMENT SPIRAL-1.1473 IS DISTORTING EXCESSIVELY.
   ELEMENT SPIRAL-1.1475 IS DISTORTING EXCESSIVELY.
   ELEMENT SPIRAL-1.1476 IS DISTORTING EXCESSIVELY.
   ELEMENT SPIRAL-1.1478 IS DISTORTING EXCESSIVELY.
   ELEMENT SPIRAL-1.1479 IS DISTORTING EXCESSIVELY.
   ELEMENT SPIRAL-1.1480 IS DISTORTING EXCESSIVELY.
   ELEMENT SPIRAL-1.1481 IS DISTORTING EXCESSIVELY.
   ELEMENT SPIRAL-1.1484 IS DISTORTING EXCESSIVELY.
   ELEMENT SPIRAL-1.1488 IS DISTORTING EXCESSIVELY.
   ELEMENT SPIRAL-1.1492 IS DISTORTING EXCESSIVELY.
   ELEMENT SPIRAL-1.1493 IS DISTORTING EXCESSIVELY.
   ELEMENT SPIRAL-1.1494 IS DISTORTING EXCESSIVELY.
   ELEMENT SPIRAL-1.1496 IS DISTORTING EXCESSIVELY.
   ELEMENT SPIRAL-1.1500 IS DISTORTING EXCESSIVELY.
   ELEMENT SPIRAL-1.1501 IS DISTORTING EXCESSIVELY.
   ELEMENT SPIRAL-1.1502 IS DISTORTING EXCESSIVELY.
   ELEMENT SPIRAL-1.1505 IS DISTORTING EXCESSIVELY.
   ELEMENT SPIRAL-1.1507 IS DISTORTING EXCESSIVELY.
   ELEMENT SPIRAL-1.1508 IS DISTORTING EXCESSIVELY.
   ELEMENT SPIRAL-1.1510 IS DISTORTING EXCESSIVELY.
   ELEMENT SPIRAL-1.1511 IS DISTORTING EXCESSIVELY.
   ELEMENT SPIRAL-1.1512 IS DISTORTING EXCESSIVELY.
   ELEMENT SPIRAL-1.1513 IS DISTORTING EXCESSIVELY.
   ELEMENT SPIRAL-1.1514 IS DISTORTING EXCESSIVELY.
   ELEMENT SPIRAL-1.1515 IS DISTORTING EXCESSIVELY.
   ELEMENT SPIRAL-1.1518 IS DISTORTING EXCESSIVELY.
   ELEMENT SPIRAL-1.1520 IS DISTORTING EXCESSIVELY.
   ELEMENT SPIRAL-1.1521 IS DISTORTING EXCESSIVELY.
   ELEMENT SPIRAL-1.1524 IS DISTORTING EXCESSIVELY.
   ELEMENT SPIRAL-1.1525 IS DISTORTING EXCESSIVELY.
   ELEMENT SPIRAL-1.1529 IS DISTORTING EXCESSIVELY.
   ELEMENT SPIRAL-1.1530 IS DISTORTING EXCESSIVELY.
   ELEMENT SPIRAL-1.1533 IS DISTORTING EXCESSIVELY.
   ELEMENT SPIRAL-1.1536 IS DISTORTING EXCESSIVELY.
   ELEMENT SPIRAL-1.1539 IS DISTORTING EXCESSIVELY.
   ELEMENT SPIRAL-1.1540 IS DISTORTING EXCESSIVELY.
   ELEMENT SPIRAL-1.1541 IS DISTORTING EXCESSIVELY.
   ELEMENT SPIRAL-1.1546 IS DISTORTING EXCESSIVELY.
   ELEMENT SPIRAL-1.1547 IS DISTORTING EXCESSIVELY.
   ELEMENT SPIRAL-1.1551 IS DISTORTING EXCESSIVELY.
   ELEMENT SPIRAL-1.1554 IS DISTORTING EXCESSIVELY.
   ELEMENT SPIRAL-1.1555 IS DISTORTING EXCESSIVELY.
   ELEMENT SPIRAL-1.1556 IS DISTORTING EXCESSIVELY.
   ELEMENT SPIRAL-1.1558 IS DISTORTING EXCESSIVELY.
   ELEMENT SPIRAL-1.1559 IS DISTORTING EXCESSIVELY.
   ELEMENT SPIRAL-1.1561 IS DISTORTING EXCESSIVELY.
   ELEMENT SPIRAL-1.1562 IS DISTORTING EXCESSIVELY.
   ELEMENT SPIRAL-1.1563 IS DISTORTING EXCESSIVELY.
   ELEMENT SPIRAL-1.1564 IS DISTORTING EXCESSIVELY.
   ELEMENT SPIRAL-1.1566 IS DISTORTING EXCESSIVELY.
   ELEMENT SPIRAL-1.1567 IS DISTORTING EXCESSIVELY.
   ELEMENT SPIRAL-1.1571 IS DISTORTING EXCESSIVELY.
   ELEMENT SPIRAL-1.1572 IS DISTORTING EXCESSIVELY.
   ELEMENT SPIRAL-1.1573 IS DISTORTING EXCESSIVELY.
   ELEMENT SPIRAL-1.1574 IS DISTORTING EXCESSIVELY.
   ELEMENT SPIRAL-1.1575 IS DISTORTING EXCESSIVELY.
   ELEMENT SPIRAL-1.1577 IS DISTORTING EXCESSIVELY.
   ELEMENT SPIRAL-1.1580 IS DISTORTING EXCESSIVELY.
   ELEMENT SPIRAL-1.1581 IS DISTORTING EXCESSIVELY.
   ELEMENT SPIRAL-1.1582 IS DISTORTING EXCESSIVELY.
   ELEMENT SPIRAL-1.1583 IS DISTORTING EXCESSIVELY.
   ELEMENT SPIRAL-1.1584 IS DISTORTING EXCESSIVELY.
   ELEMENT SPIRAL-1.1587 IS DISTORTING EXCESSIVELY.
   ELEMENT SPIRAL-1.1588 IS DISTORTING EXCESSIVELY.
   ELEMENT SPIRAL-1.1589 IS DISTORTING EXCESSIVELY.
   ELEMENT SPIRAL-1.1592 IS DISTORTING EXCESSIVELY.
   ELEMENT SPIRAL-1.1593 IS DISTORTING EXCESSIVELY.
   ELEMENT SPIRAL-1.1595 IS DISTORTING EXCESSIVELY.
   ELEMENT SPIRAL-1.1598 IS DISTORTING EXCESSIVELY.
   ELEMENT SPIRAL-1.1599 IS DISTORTING EXCESSIVELY.
   ELEMENT SPIRAL-1.1600 IS DISTORTING EXCESSIVELY.
   ELEMENT SPIRAL-1.1602 IS DISTORTING EXCESSIVELY.
   ELEMENT SPIRAL-1.1604 IS DISTORTING EXCESSIVELY.
   ELEMENT SPIRAL-1.1605 IS DISTORTING EXCESSIVELY.
   ELEMENT SPIRAL-1.1606 IS DISTORTING EXCESSIVELY.
   ELEMENT SPIRAL-1.1607 IS DISTORTING EXCESSIVELY.
   ELEMENT SPIRAL-1.1609 IS DISTORTING EXCESSIVELY.
   ELEMENT SPIRAL-1.1610 IS DISTORTING EXCESSIVELY.
   ELEMENT SPIRAL-1.1612 IS DISTORTING EXCESSIVELY.
   ELEMENT SPIRAL-1.1613 IS DISTORTING EXCESSIVELY.
   ELEMENT SPIRAL-1.1614 IS DISTORTING EXCESSIVELY.
   ELEMENT SPIRAL-1.1616 IS DISTORTING EXCESSIVELY.
   ELEMENT SPIRAL-1.1621 IS DISTORTING EXCESSIVELY.
   ELEMENT SPIRAL-1.1623 IS DISTORTING EXCESSIVELY.
   ELEMENT SPIRAL-1.1628 IS DISTORTING EXCESSIVELY.
   ELEMENT SPIRAL-1.1630 IS DISTORTING EXCESSIVELY.
   ELEMENT SPIRAL-1.1632 IS DISTORTING EXCESSIVELY.
   ELEMENT SPIRAL-1.1634 IS DISTORTING EXCESSIVELY.
   ELEMENT SPIRAL-1.1635 IS DISTORTING EXCESSIVELY.
   ELEMENT SPIRAL-1.1642 IS DISTORTING EXCESSIVELY.
   ELEMENT SPIRAL-1.1644 IS DISTORTING EXCESSIVELY.
   ELEMENT SPIRAL-1.1646 IS DISTORTING EXCESSIVELY.
   ELEMENT SPIRAL-1.1647 IS DISTORTING EXCESSIVELY.
   ELEMENT SPIRAL-1.1648 IS DISTORTING EXCESSIVELY.
   ELEMENT SPIRAL-1.1649 IS DISTORTING EXCESSIVELY.
   ELEMENT SPIRAL-1.1650 IS DISTORTING EXCESSIVELY.
   ELEMENT SPIRAL-1.1652 IS DISTORTING EXCESSIVELY.
   ELEMENT SPIRAL-1.1655 IS DISTORTING EXCESSIVELY.
   ELEMENT SPIRAL-1.1656 IS DISTORTING EXCESSIVELY.
   ELEMENT SPIRAL-1.1657 IS DISTORTING EXCESSIVELY.
   ELEMENT SPIRAL-1.1659 IS DISTORTING EXCESSIVELY.
   ELEMENT SPIRAL-1.1661 IS DISTORTING EXCESSIVELY.
   ELEMENT SPIRAL-1.1662 IS DISTORTING EXCESSIVELY.
   ELEMENT SPIRAL-1.1665 IS DISTORTING EXCESSIVELY.
   ELEMENT SPIRAL-1.1666 IS DISTORTING EXCESSIVELY.
   ELEMENT SPIRAL-1.1667 IS DISTORTING EXCESSIVELY.
   ELEMENT SPIRAL-1.1669 IS DISTORTING EXCESSIVELY.
   ELEMENT SPIRAL-1.1671 IS DISTORTING EXCESSIVELY.
   ELEMENT SPIRAL-1.1675 IS DISTORTING EXCESSIVELY.
   ELEMENT SPIRAL-1.1676 IS DISTORTING EXCESSIVELY.
   ELEMENT SPIRAL-1.1677 IS DISTORTING EXCESSIVELY.
   ELEMENT SPIRAL-1.1678 IS DISTORTING EXCESSIVELY.
   ELEMENT SPIRAL-1.1680 IS DISTORTING EXCESSIVELY.
   ELEMENT SPIRAL-1.1681 IS DISTORTING EXCESSIVELY.
   ELEMENT SPIRAL-1.1683 IS DISTORTING EXCESSIVELY.
   ELEMENT SPIRAL-1.1687 IS DISTORTING EXCESSIVELY.
   ELEMENT SPIRAL-1.1690 IS DISTORTING EXCESSIVELY.
   ELEMENT SPIRAL-1.1692 IS DISTORTING EXCESSIVELY.
   ELEMENT SPIRAL-1.1696 IS DISTORTING EXCESSIVELY.
   ELEMENT SPIRAL-1.1698 IS DISTORTING EXCESSIVELY.
   ELEMENT SPIRAL-1.1699 IS DISTORTING EXCESSIVELY.
   ELEMENT SPIRAL-1.1701 IS DISTORTING EXCESSIVELY.
   ELEMENT SPIRAL-1.1703 IS DISTORTING EXCESSIVELY.
   ELEMENT SPIRAL-1.1706 IS DISTORTING EXCESSIVELY.
   ELEMENT SPIRAL-1.1708 IS DISTORTING EXCESSIVELY.
   ELEMENT SPIRAL-1.1709 IS DISTORTING EXCESSIVELY.
   ELEMENT SPIRAL-1.1710 IS DISTORTING EXCESSIVELY.
   ELEMENT SPIRAL-1.1712 IS DISTORTING EXCESSIVELY.
   ELEMENT SPIRAL-1.1713 IS DISTORTING EXCESSIVELY.
   ELEMENT SPIRAL-1.1714 IS DISTORTING EXCESSIVELY.
   ELEMENT SPIRAL-1.1715 IS DISTORTING EXCESSIVELY.
   ELEMENT SPIRAL-1.1717 IS DISTORTING EXCESSIVELY.
   ELEMENT SPIRAL-1.1719 IS DISTORTING EXCESSIVELY.
   ELEMENT SPIRAL-1.1720 IS DISTORTING EXCESSIVELY.
   ELEMENT SPIRAL-1.1723 IS DISTORTING EXCESSIVELY.
   ELEMENT SPIRAL-1.1724 IS DISTORTING EXCESSIVELY.
   ELEMENT SPIRAL-1.1727 IS DISTORTING EXCESSIVELY.
   ELEMENT SPIRAL-1.1729 IS DISTORTING EXCESSIVELY.
   ELEMENT SPIRAL-1.1730 IS DISTORTING EXCESSIVELY.
   ELEMENT SPIRAL-1.1732 IS DISTORTING EXCESSIVELY.
   ELEMENT SPIRAL-1.1739 IS DISTORTING EXCESSIVELY.
   ELEMENT SPIRAL-1.1745 IS DISTORTING EXCESSIVELY.
   ELEMENT SPIRAL-1.1750 IS DISTORTING EXCESSIVELY.
   ELEMENT SPIRAL-1.1751 IS DISTORTING EXCESSIVELY.
   ELEMENT SPIRAL-1.1752 IS DISTORTING EXCESSIVELY.
   ELEMENT SPIRAL-1.1753 IS DISTORTING EXCESSIVELY.
   ELEMENT SPIRAL-1.1755 IS DISTORTING EXCESSIVELY.
   ELEMENT SPIRAL-1.1757 IS DISTORTING EXCESSIVELY.
   ELEMENT SPIRAL-1.1761 IS DISTORTING EXCESSIVELY.
   ELEMENT SPIRAL-1.1762 IS DISTORTING EXCESSIVELY.
   ELEMENT SPIRAL-1.1763 IS DISTORTING EXCESSIVELY.
   ELEMENT SPIRAL-1.1764 IS DISTORTING EXCESSIVELY.
   ELEMENT SPIRAL-1.1766 IS DISTORTING EXCESSIVELY.
   ELEMENT SPIRAL-1.1768 IS DISTORTING EXCESSIVELY.
   ELEMENT SPIRAL-1.1771 IS DISTORTING EXCESSIVELY.
   ELEMENT SPIRAL-1.1772 IS DISTORTING EXCESSIVELY.
   ELEMENT SPIRAL-1.1773 IS DISTORTING EXCESSIVELY.
   ELEMENT SPIRAL-1.1774 IS DISTORTING EXCESSIVELY.
   ELEMENT SPIRAL-1.1775 IS DISTORTING EXCESSIVELY.
   ELEMENT SPIRAL-1.1777 IS DISTORTING EXCESSIVELY.
   ELEMENT SPIRAL-1.1778 IS DISTORTING EXCESSIVELY.
   ELEMENT SPIRAL-1.1779 IS DISTORTING EXCESSIVELY.
   ELEMENT SPIRAL-1.1781 IS DISTORTING EXCESSIVELY.
   ELEMENT SPIRAL-1.1782 IS DISTORTING EXCESSIVELY.
   ELEMENT SPIRAL-1.1783 IS DISTORTING EXCESSIVELY.
   ELEMENT SPIRAL-1.1794 IS DISTORTING EXCESSIVELY.
   ELEMENT SPIRAL-1.1796 IS DISTORTING EXCESSIVELY.
   ELEMENT SPIRAL-1.1797 IS DISTORTING EXCESSIVELY.
   ELEMENT SPIRAL-1.1798 IS DISTORTING EXCESSIVELY.
   ELEMENT SPIRAL-1.1800 IS DISTORTING EXCESSIVELY.
   ELEMENT SPIRAL-1.1801 IS DISTORTING EXCESSIVELY.
   ELEMENT SPIRAL-1.1803 IS DISTORTING EXCESSIVELY.
   ELEMENT SPIRAL-1.1806 IS DISTORTING EXCESSIVELY.
   ELEMENT SPIRAL-1.1807 IS DISTORTING EXCESSIVELY.
   ELEMENT SPIRAL-1.1808 IS DISTORTING EXCESSIVELY.
   ELEMENT SPIRAL-1.1809 IS DISTORTING EXCESSIVELY.
   ELEMENT SPIRAL-1.1811 IS DISTORTING EXCESSIVELY.
   ELEMENT SPIRAL-1.1813 IS DISTORTING EXCESSIVELY.
   ELEMENT SPIRAL-1.1815 IS DISTORTING EXCESSIVELY.
   ELEMENT SPIRAL-1.1817 IS DISTORTING EXCESSIVELY.
   ELEMENT SPIRAL-1.1820 IS DISTORTING EXCESSIVELY.
   ELEMENT SPIRAL-1.1822 IS DISTORTING EXCESSIVELY.
   ELEMENT SPIRAL-1.1824 IS DISTORTING EXCESSIVELY.
   ELEMENT SPIRAL-1.1825 IS DISTORTING EXCESSIVELY.
   ELEMENT SPIRAL-1.1826 IS DISTORTING EXCESSIVELY.
   ELEMENT SPIRAL-1.1827 IS DISTORTING EXCESSIVELY.
   ELEMENT SPIRAL-1.1828 IS DISTORTING EXCESSIVELY.
   ELEMENT SPIRAL-1.1829 IS DISTORTING EXCESSIVELY.
   ELEMENT SPIRAL-1.1830 IS DISTORTING EXCESSIVELY.
   ELEMENT SPIRAL-1.1831 IS DISTORTING EXCESSIVELY.
   ELEMENT SPIRAL-1.1832 IS DISTORTING EXCESSIVELY.
   ELEMENT SPIRAL-1.1834 IS DISTORTING EXCESSIVELY.
   ELEMENT SPIRAL-1.1837 IS DISTORTING EXCESSIVELY.
   ELEMENT SPIRAL-1.1840 IS DISTORTING EXCESSIVELY.
   ELEMENT SPIRAL-1.1841 IS DISTORTING EXCESSIVELY.
   ELEMENT SPIRAL-1.1842 IS DISTORTING EXCESSIVELY.
   ELEMENT SPIRAL-1.1845 IS DISTORTING EXCESSIVELY.
   ELEMENT SPIRAL-1.1846 IS DISTORTING EXCESSIVELY.
   ELEMENT SPIRAL-1.1847 IS DISTORTING EXCESSIVELY.
   ELEMENT SPIRAL-1.1848 IS DISTORTING EXCESSIVELY.
   ELEMENT SPIRAL-1.1849 IS DISTORTING EXCESSIVELY.
   ELEMENT SPIRAL-1.1850 IS DISTORTING EXCESSIVELY.
   ELEMENT SPIRAL-1.1851 IS DISTORTING EXCESSIVELY.
   ELEMENT SPIRAL-1.1852 IS DISTORTING EXCESSIVELY.
   ELEMENT SPIRAL-1.1853 IS DISTORTING EXCESSIVELY.
   ELEMENT SPIRAL-1.1854 IS DISTORTING EXCESSIVELY.
   ELEMENT SPIRAL-1.1856 IS DISTORTING EXCESSIVELY.
   ELEMENT SPIRAL-1.1859 IS DISTORTING EXCESSIVELY.
   ELEMENT SPIRAL-1.1860 IS DISTORTING EXCESSIVELY.
   ELEMENT SPIRAL-1.1862 IS DISTORTING EXCESSIVELY.
   ELEMENT SPIRAL-1.1864 IS DISTORTING EXCESSIVELY.
   ELEMENT SPIRAL-1.1867 IS DISTORTING EXCESSIVELY.
   ELEMENT SPIRAL-1.1870 IS DISTORTING EXCESSIVELY.
   ELEMENT SPIRAL-1.1871 IS DISTORTING EXCESSIVELY.
   ELEMENT SPIRAL-1.1874 IS DISTORTING EXCESSIVELY.
   ELEMENT SPIRAL-1.1877 IS DISTORTING EXCESSIVELY.
   ELEMENT SPIRAL-1.1878 IS DISTORTING EXCESSIVELY.
   ELEMENT SPIRAL-1.1879 IS DISTORTING EXCESSIVELY.
   ELEMENT SPIRAL-1.1880 IS DISTORTING EXCESSIVELY.
   ELEMENT SPIRAL-1.1881 IS DISTORTING EXCESSIVELY.
   ELEMENT SPIRAL-1.1882 IS DISTORTING EXCESSIVELY.
   ELEMENT SPIRAL-1.1884 IS DISTORTING EXCESSIVELY.
   ELEMENT SPIRAL-1.1885 IS DISTORTING EXCESSIVELY.
   ELEMENT SPIRAL-1.1886 IS DISTORTING EXCESSIVELY.
   ELEMENT SPIRAL-1.1887 IS DISTORTING EXCESSIVELY.
   ELEMENT SPIRAL-1.1888 IS DISTORTING EXCESSIVELY.
   ELEMENT SPIRAL-1.1890 IS DISTORTING EXCESSIVELY.
[...]
        NUMBER OF FLOPS:      6.037e+09
        SOLVER ELAPSED TIME:  484ms
 

 ***WARNING: THE SYSTEM MATRIX HAS 1 NEGATIVE EIGENVALUES.
             EXPLANATIONS ARE SUGGESTED AFTER THE FIRST OCCURRENCE OF THIS MESSAGE.

               CONVERGENCE CHECKS FOR EQUILIBRIUM ITERATION     2


 AVERAGE FORCE                      8.807E-03   TIME AVG. FORCE       3.216E-03
 LARGEST SCALED RESIDUAL FORCE     -9.848E-04   AT NODE       8665   DOF  3
   INSTANCE: SPIRAL-1                                                                        
  CORRESPONDING RESIDUAL FORCE     -9.848E-04
 LARGEST INCREMENT OF DISP.        -2.310E-03   AT NODE        170   DOF  2
   INSTANCE: SPIRAL-1                                                                        
 LARGEST CORRECTION TO DISP.       -3.753E-07   AT NODE        166   DOF  3
   INSTANCE: SPIRAL-1                                                                        
          FORCE     EQUILIBRIUM NOT ACHIEVED WITHIN TOLERANCE.
 
	SYMMETRIC PURE THREAD-BASED DIRECT SPARSE SOLVER RUNNING ON
 	1 HOST x 1 MPI RANK PER HOST x 1 THREAD PER RANK
        NUMBER OF EQUATIONS:  90774
        NUMBER OF RHS:        1
        NUMBER OF FLOPS:      6.037e+09
        SOLVER ELAPSED TIME:  482ms

               CONVERGENCE CHECKS FOR EQUILIBRIUM ITERATION     3


 AVERAGE FORCE                      8.816E-03   TIME AVG. FORCE       3.216E-03
 LARGEST SCALED RESIDUAL FORCE     -1.109E-02   AT NODE      17271   DOF  3
   INSTANCE: SPIRAL-1                                                                        
  CORRESPONDING RESIDUAL FORCE     -1.109E-02
 LARGEST INCREMENT OF DISP.        -2.359E-03   AT NODE        170   DOF  2
   INSTANCE: SPIRAL-1                                                                        
 LARGEST CORRECTION TO DISP.       -4.859E-05   AT NODE        170   DOF  2
   INSTANCE: SPIRAL-1                                                                        
          FORCE     EQUILIBRIUM NOT ACHIEVED WITHIN TOLERANCE.
 
	SYMMETRIC PURE THREAD-BASED DIRECT SPARSE SOLVER RUNNING ON
 	1 HOST x 1 MPI RANK PER HOST x 1 THREAD PER RANK
        NUMBER OF EQUATIONS:  90774
        NUMBER OF RHS:        1
        NUMBER OF FLOPS:      6.037e+09
        SOLVER ELAPSED TIME:  499ms

               CONVERGENCE CHECKS FOR EQUILIBRIUM ITERATION     4


 AVERAGE FORCE                      8.812E-03   TIME AVG. FORCE       3.216E-03
 LARGEST SCALED RESIDUAL FORCE      1.764E-05   AT NODE      17271   DOF  3
   INSTANCE: SPIRAL-1                                                                        
  CORRESPONDING RESIDUAL FORCE      1.764E-05
 LARGEST INCREMENT OF DISP.        -2.360E-03   AT NODE        170   DOF  2
   INSTANCE: SPIRAL-1                                                                        
 LARGEST CORRECTION TO DISP.       -4.806E-07   AT NODE        170   DOF  2
   INSTANCE: SPIRAL-1                                                                        
          FORCE     EQUILIBRIUM NOT ACHIEVED WITHIN TOLERANCE.
 
	SYMMETRIC PURE THREAD-BASED DIRECT SPARSE SOLVER RUNNING ON
 	1 HOST x 1 MPI RANK PER HOST x 1 THREAD PER RANK
        NUMBER OF EQUATIONS:  90774
        NUMBER OF RHS:        1
        NUMBER OF FLOPS:      6.037e+09
        SOLVER ELAPSED TIME:  532ms

               CONVERGENCE CHECKS FOR EQUILIBRIUM ITERATION     5


 AVERAGE FORCE                      8.811E-03   TIME AVG. FORCE       3.216E-03
 LARGEST SCALED RESIDUAL FORCE     -7.687E-04   AT NODE      17271   DOF  3
   INSTANCE: SPIRAL-1                                                                        
  CORRESPONDING RESIDUAL FORCE     -7.687E-04
 LARGEST INCREMENT OF DISP.        -2.372E-03   AT NODE        170   DOF  2
   INSTANCE: SPIRAL-1                                                                        
 LARGEST CORRECTION TO DISP.       -1.276E-05   AT NODE        170   DOF  2
   INSTANCE: SPIRAL-1                                                                        
          FORCE     EQUILIBRIUM NOT ACHIEVED WITHIN TOLERANCE.
 
	SYMMETRIC PURE THREAD-BASED DIRECT SPARSE SOLVER RUNNING ON
 	1 HOST x 1 MPI RANK PER HOST x 1 THREAD PER RANK
        NUMBER OF EQUATIONS:  90774
        NUMBER OF RHS:        1
        NUMBER OF FLOPS:      6.037e+09
        SOLVER ELAPSED TIME:  507ms

               CONVERGENCE CHECKS FOR EQUILIBRIUM ITERATION     6


 AVERAGE FORCE                      8.813E-03   TIME AVG. FORCE       3.216E-03
 LARGEST SCALED RESIDUAL FORCE      4.175E-06   AT NODE        230   DOF  2
   INSTANCE: SPIRAL-1                                                                        
  CORRESPONDING RESIDUAL FORCE      4.175E-06
 LARGEST INCREMENT OF DISP.        -2.372E-03   AT NODE        170   DOF  2
   INSTANCE: SPIRAL-1                                                                        
 LARGEST CORRECTION TO DISP.        8.501E-08   AT NODE        170   DOF  2
   INSTANCE: SPIRAL-1                                                                        
          THE FORCE     EQUILIBRIUM EQUATIONS HAVE CONVERGED

 ITERATION SUMMARY FOR THE INCREMENT:   6 TOTAL ITERATIONS, OF WHICH
   0 ARE SEVERE DISCONTINUITY ITERATIONS AND  6 ARE EQUILIBRIUM ITERATIONS.

 TIME INCREMENT COMPLETED  5.213E-02,  FRACTION OF STEP COMPLETED  0.926    
 STEP TIME COMPLETED       0.926    ,  TOTAL TIME COMPLETED        0.926    


  INCREMENT    63 STARTS. ATTEMPT NUMBER  1, TIME INCREMENT  5.213E-02
 
	SYMMETRIC PURE THREAD-BASED DIRECT SPARSE SOLVER RUNNING ON
 	1 HOST x 1 MPI RANK PER HOST x 1 THREAD PER RANK
        NUMBER OF EQUATIONS:  90774
        NUMBER OF RHS:        1
        NUMBER OF FLOPS:      6.037e+09
        SOLVER ELAPSED TIME:  516ms

               CONVERGENCE CHECKS FOR EQUILIBRIUM ITERATION     1


 AVERAGE FORCE                      9.992E-03   TIME AVG. FORCE       3.323E-03
 LARGEST SCALED RESIDUAL FORCE      0.207       AT NODE      17271   DOF  3
   INSTANCE: SPIRAL-1                                                                        
  CORRESPONDING RESIDUAL FORCE      0.207    
 LARGEST INCREMENT OF DISP.        -2.212E-03   AT NODE        170   DOF  2
   INSTANCE: SPIRAL-1                                                                        
 LARGEST CORRECTION TO DISP.        2.058E-04   AT NODE        166   DOF  2
   INSTANCE: SPIRAL-1                                                                        
          FORCE     EQUILIBRIUM NOT ACHIEVED WITHIN TOLERANCE.
 
	SYMMETRIC PURE THREAD-BASED DIRECT SPARSE SOLVER RUNNING ON
 	1 HOST x 1 MPI RANK PER HOST x 1 THREAD PER RANK
        NUMBER OF EQUATIONS:  90774
        NUMBER OF RHS:        1
        NUMBER OF FLOPS:      6.037e+09
        SOLVER ELAPSED TIME:  510ms
 

 ***WARNING: THE SYSTEM MATRIX HAS 1 NEGATIVE EIGENVALUES.
             EXPLANATIONS ARE SUGGESTED AFTER THE FIRST OCCURRENCE OF THIS MESSAGE.

               CONVERGENCE CHECKS FOR EQUILIBRIUM ITERATION     2


 AVERAGE FORCE                      9.166E-03   TIME AVG. FORCE       3.310E-03
 LARGEST SCALED RESIDUAL FORCE     -1.538E-03   AT NODE        178   DOF  2
   INSTANCE: SPIRAL-1                                                                        
  CORRESPONDING RESIDUAL FORCE     -1.538E-03
 LARGEST INCREMENT OF DISP.        -2.212E-03   AT NODE        170   DOF  2
   INSTANCE: SPIRAL-1                                                                        
 LARGEST CORRECTION TO DISP.        8.146E-07   AT NODE       4956   DOF  2
   INSTANCE: SPIRAL-1                                                                        
          FORCE     EQUILIBRIUM NOT ACHIEVED WITHIN TOLERANCE.
 
	SYMMETRIC PURE THREAD-BASED DIRECT SPARSE SOLVER RUNNING ON
 	1 HOST x 1 MPI RANK PER HOST x 1 THREAD PER RANK
        NUMBER OF EQUATIONS:  90774
        NUMBER OF RHS:        1
        NUMBER OF FLOPS:      6.037e+09
        SOLVER ELAPSED TIME:  485ms

               CONVERGENCE CHECKS FOR EQUILIBRIUM ITERATION     3


 AVERAGE FORCE                      9.194E-03   TIME AVG. FORCE       3.311E-03
 LARGEST SCALED RESIDUAL FORCE     -2.054E-02   AT NODE      17271   DOF  3
   INSTANCE: SPIRAL-1                                                                        
  CORRESPONDING RESIDUAL FORCE     -2.054E-02
 LARGEST INCREMENT OF DISP.        -2.276E-03   AT NODE        170   DOF  2
   INSTANCE: SPIRAL-1                                                                        
 LARGEST CORRECTION TO DISP.       -6.460E-05   AT NODE        170   DOF  2
   INSTANCE: SPIRAL-1                                                                        
          FORCE     EQUILIBRIUM NOT ACHIEVED WITHIN TOLERANCE.
 
	SYMMETRIC PURE THREAD-BASED DIRECT SPARSE SOLVER RUNNING ON
 	1 HOST x 1 MPI RANK PER HOST x 1 THREAD PER RANK
        NUMBER OF EQUATIONS:  90774
        NUMBER OF RHS:        1
        NUMBER OF FLOPS:      6.037e+09
        SOLVER ELAPSED TIME:  499ms

               CONVERGENCE CHECKS FOR EQUILIBRIUM ITERATION     4


 AVERAGE FORCE                      9.173E-03   TIME AVG. FORCE       3.310E-03
 LARGEST SCALED RESIDUAL FORCE      3.277E-05   AT NODE      17271   DOF  3
   INSTANCE: SPIRAL-1                                                                        
  CORRESPONDING RESIDUAL FORCE      3.277E-05
 LARGEST INCREMENT OF DISP.        -2.277E-03   AT NODE        170   DOF  2
   INSTANCE: SPIRAL-1                                                                        
 LARGEST CORRECTION TO DISP.       -4.420E-07   AT NODE        170   DOF  2
   INSTANCE: SPIRAL-1                                                                        
          FORCE     EQUILIBRIUM NOT ACHIEVED WITHIN TOLERANCE.
 
	SYMMETRIC PURE THREAD-BASED DIRECT SPARSE SOLVER RUNNING ON
 	1 HOST x 1 MPI RANK PER HOST x 1 THREAD PER RANK
        NUMBER OF EQUATIONS:  90774
        NUMBER OF RHS:        1
        NUMBER OF FLOPS:      6.037e+09
        SOLVER ELAPSED TIME:  496ms

               CONVERGENCE CHECKS FOR EQUILIBRIUM ITERATION     5


 AVERAGE FORCE                      9.173E-03   TIME AVG. FORCE       3.310E-03
 LARGEST SCALED RESIDUAL FORCE     -2.843E-03   AT NODE      17271   DOF  3
   INSTANCE: SPIRAL-1                                                                        
  CORRESPONDING RESIDUAL FORCE     -2.843E-03
 LARGEST INCREMENT OF DISP.        -2.301E-03   AT NODE        170   DOF  2
   INSTANCE: SPIRAL-1                                                                        
 LARGEST CORRECTION TO DISP.       -2.400E-05   AT NODE        170   DOF  2
   INSTANCE: SPIRAL-1                                                                        
          FORCE     EQUILIBRIUM NOT ACHIEVED WITHIN TOLERANCE.
 
	SYMMETRIC PURE THREAD-BASED DIRECT SPARSE SOLVER RUNNING ON
 	1 HOST x 1 MPI RANK PER HOST x 1 THREAD PER RANK
        NUMBER OF EQUATIONS:  90774
        NUMBER OF RHS:        1
        NUMBER OF FLOPS:      6.037e+09
        SOLVER ELAPSED TIME:  535ms

               CONVERGENCE CHECKS FOR EQUILIBRIUM ITERATION     6


 AVERAGE FORCE                      9.176E-03   TIME AVG. FORCE       3.311E-03
 LARGEST SCALED RESIDUAL FORCE      1.347E-05   AT NODE        740   DOF  2
   INSTANCE: SPIRAL-1                                                                        
  CORRESPONDING RESIDUAL FORCE      1.347E-05
 LARGEST INCREMENT OF DISP.        -2.301E-03   AT NODE        170   DOF  2
   INSTANCE: SPIRAL-1                                                                        
 LARGEST CORRECTION TO DISP.        1.315E-07   AT NODE        170   DOF  2
   INSTANCE: SPIRAL-1                                                                        
          THE FORCE     EQUILIBRIUM EQUATIONS HAVE CONVERGED

 ITERATION SUMMARY FOR THE INCREMENT:   6 TOTAL ITERATIONS, OF WHICH
   0 ARE SEVERE DISCONTINUITY ITERATIONS AND  6 ARE EQUILIBRIUM ITERATIONS.

 TIME INCREMENT COMPLETED  5.213E-02,  FRACTION OF STEP COMPLETED  0.978    
 STEP TIME COMPLETED       0.978    ,  TOTAL TIME COMPLETED        0.978    


  INCREMENT    64 STARTS. ATTEMPT NUMBER  1, TIME INCREMENT  2.226E-02
 
	SYMMETRIC PURE THREAD-BASED DIRECT SPARSE SOLVER RUNNING ON
 	1 HOST x 1 MPI RANK PER HOST x 1 THREAD PER RANK
        NUMBER OF EQUATIONS:  90774
        NUMBER OF RHS:        1
        NUMBER OF FLOPS:      6.037e+09
        SOLVER ELAPSED TIME:  532ms

               CONVERGENCE CHECKS FOR EQUILIBRIUM ITERATION     1


 AVERAGE FORCE                      9.351E-03   TIME AVG. FORCE       3.405E-03
 LARGEST SCALED RESIDUAL FORCE      1.904E-02   AT NODE      17271   DOF  3
   INSTANCE: SPIRAL-1                                                                        
  CORRESPONDING RESIDUAL FORCE      1.904E-02
 LARGEST INCREMENT OF DISP.        -9.534E-04   AT NODE        170   DOF  2
   INSTANCE: SPIRAL-1                                                                        
 LARGEST CORRECTION TO DISP.        4.560E-05   AT NODE        166   DOF  2
   INSTANCE: SPIRAL-1                                                                        
          FORCE     EQUILIBRIUM NOT ACHIEVED WITHIN TOLERANCE.
 
	SYMMETRIC PURE THREAD-BASED DIRECT SPARSE SOLVER RUNNING ON
 	1 HOST x 1 MPI RANK PER HOST x 1 THREAD PER RANK
        NUMBER OF EQUATIONS:  90774
        NUMBER OF RHS:        1
        NUMBER OF FLOPS:      6.037e+09
        SOLVER ELAPSED TIME:  524ms
 

 ***WARNING: THE SYSTEM MATRIX HAS 1 NEGATIVE EIGENVALUES.
             EXPLANATIONS ARE SUGGESTED AFTER THE FIRST OCCURRENCE OF THIS MESSAGE.

               CONVERGENCE CHECKS FOR EQUILIBRIUM ITERATION     2


 AVERAGE FORCE                      9.341E-03   TIME AVG. FORCE       3.405E-03
 LARGEST SCALED RESIDUAL FORCE      1.709E-03   AT NODE        740   DOF  2
   INSTANCE: SPIRAL-1                                                                        
  CORRESPONDING RESIDUAL FORCE      1.709E-03
 LARGEST INCREMENT OF DISP.        -9.518E-04   AT NODE        170   DOF  2
   INSTANCE: SPIRAL-1                                                                        
 LARGEST CORRECTION TO DISP.        2.387E-06   AT NODE        738   DOF  2
   INSTANCE: SPIRAL-1                                                                        
          FORCE     EQUILIBRIUM NOT ACHIEVED WITHIN TOLERANCE.
 
	SYMMETRIC PURE THREAD-BASED DIRECT SPARSE SOLVER RUNNING ON
 	1 HOST x 1 MPI RANK PER HOST x 1 THREAD PER RANK
        NUMBER OF EQUATIONS:  90774
        NUMBER OF RHS:        1
        NUMBER OF FLOPS:      6.037e+09
        SOLVER ELAPSED TIME:  553ms

               CONVERGENCE CHECKS FOR EQUILIBRIUM ITERATION     3


 AVERAGE FORCE                      9.351E-03   TIME AVG. FORCE       3.405E-03
 LARGEST SCALED RESIDUAL FORCE     -1.185E-02   AT NODE      17271   DOF  3
   INSTANCE: SPIRAL-1                                                                        
  CORRESPONDING RESIDUAL FORCE     -1.185E-02
 LARGEST INCREMENT OF DISP.        -1.000E-03   AT NODE        170   DOF  2
   INSTANCE: SPIRAL-1                                                                        
 LARGEST CORRECTION TO DISP.       -4.854E-05   AT NODE        170   DOF  2
   INSTANCE: SPIRAL-1                                                                        
          FORCE     EQUILIBRIUM NOT ACHIEVED WITHIN TOLERANCE.
 
	SYMMETRIC PURE THREAD-BASED DIRECT SPARSE SOLVER RUNNING ON
 	1 HOST x 1 MPI RANK PER HOST x 1 THREAD PER RANK
        NUMBER OF EQUATIONS:  90774
        NUMBER OF RHS:        1
        NUMBER OF FLOPS:      6.037e+09
        SOLVER ELAPSED TIME:  514ms

               CONVERGENCE CHECKS FOR EQUILIBRIUM ITERATION     4


 AVERAGE FORCE                      9.346E-03   TIME AVG. FORCE       3.405E-03
 LARGEST SCALED RESIDUAL FORCE      7.989E-05   AT NODE        740   DOF  2
   INSTANCE: SPIRAL-1                                                                        
  CORRESPONDING RESIDUAL FORCE      7.989E-05
 LARGEST INCREMENT OF DISP.        -1.000E-03   AT NODE        170   DOF  2
   INSTANCE: SPIRAL-1                                                                        
 LARGEST CORRECTION TO DISP.       -1.011E-07   AT NODE       4955   DOF  2
   INSTANCE: SPIRAL-1                                                                        
          FORCE     EQUILIBRIUM NOT ACHIEVED WITHIN TOLERANCE.
 
	SYMMETRIC PURE THREAD-BASED DIRECT SPARSE SOLVER RUNNING ON
 	1 HOST x 1 MPI RANK PER HOST x 1 THREAD PER RANK
        NUMBER OF EQUATIONS:  90774
        NUMBER OF RHS:        1
        NUMBER OF FLOPS:      6.037e+09
        SOLVER ELAPSED TIME:  519ms

               CONVERGENCE CHECKS FOR EQUILIBRIUM ITERATION     5


 AVERAGE FORCE                      9.346E-03   TIME AVG. FORCE       3.405E-03
 LARGEST SCALED RESIDUAL FORCE     -3.548E-05   AT NODE      17271   DOF  3
   INSTANCE: SPIRAL-1                                                                        
  CORRESPONDING RESIDUAL FORCE     -3.548E-05
 LARGEST INCREMENT OF DISP.        -1.003E-03   AT NODE        170   DOF  2
   INSTANCE: SPIRAL-1                                                                        
 LARGEST CORRECTION TO DISP.       -2.645E-06   AT NODE        170   DOF  2
   INSTANCE: SPIRAL-1                                                                        
          FORCE     EQUILIBRIUM NOT ACHIEVED WITHIN TOLERANCE.
 
	SYMMETRIC PURE THREAD-BASED DIRECT SPARSE SOLVER RUNNING ON
 	1 HOST x 1 MPI RANK PER HOST x 1 THREAD PER RANK
        NUMBER OF EQUATIONS:  90774
        NUMBER OF RHS:        1
        NUMBER OF FLOPS:      6.037e+09
        SOLVER ELAPSED TIME:  566ms

               CONVERGENCE CHECKS FOR EQUILIBRIUM ITERATION     6


 AVERAGE FORCE                      9.347E-03   TIME AVG. FORCE       3.405E-03
 LARGEST SCALED RESIDUAL FORCE      1.088E-06   AT NODE        178   DOF  2
   INSTANCE: SPIRAL-1                                                                        
  CORRESPONDING RESIDUAL FORCE      1.088E-06
 LARGEST INCREMENT OF DISP.        -1.003E-03   AT NODE        170   DOF  2
   INSTANCE: SPIRAL-1                                                                        
 LARGEST CORRECTION TO DISP.        1.441E-08   AT NODE       4957   DOF  2
   INSTANCE: SPIRAL-1                                                                        
          THE FORCE     EQUILIBRIUM EQUATIONS HAVE CONVERGED

 ITERATION SUMMARY FOR THE INCREMENT:   6 TOTAL ITERATIONS, OF WHICH
   0 ARE SEVERE DISCONTINUITY ITERATIONS AND  6 ARE EQUILIBRIUM ITERATIONS.

 TIME INCREMENT COMPLETED  2.226E-02,  FRACTION OF STEP COMPLETED   1.00    
 STEP TIME COMPLETED        1.00    ,  TOTAL TIME COMPLETED         1.00    


          THE ANALYSIS HAS BEEN COMPLETED



     ANALYSIS SUMMARY:
     TOTAL OF         64  INCREMENTS
                      15  CUTBACKS IN AUTOMATIC INCREMENTATION
                     348  ITERATIONS INCLUDING CONTACT ITERATIONS IF PRESENT
                     348  PASSES THROUGH THE EQUATION SOLVER OF WHICH 
                     348  INVOLVE MATRIX DECOMPOSITION, INCLUDING
                       0  DECOMPOSITION(S) OF THE MASS MATRIX
                       1  REORDERING OF EQUATIONS TO MINIMIZE WAVEFRONT
                       0  ADDITIONAL RESIDUAL EVALUATIONS FOR LINE SEARCHES
                       0  ADDITIONAL OPERATOR EVALUATIONS FOR LINE SEARCHES
                       4  WARNING MESSAGES DURING USER INPUT PROCESSING
                   90029  WARNING MESSAGES DURING ANALYSIS
                   89956  ANALYSIS WARNINGS ARE NUMERICAL PROBLEM MESSAGES
                      68  ANALYSIS WARNINGS ARE NEGATIVE EIGENVALUE MESSAGES
                       0  ERROR MESSAGES



     JOB TIME SUMMARY
       USER TIME (SEC)      =     4.93E+02
       SYSTEM TIME (SEC)    =      66.    
       TOTAL CPU TIME (SEC) =     5.59E+02
       WALLCLOCK TIME (SEC) =          479
       MEMORY PEAK (GB)     =            0
