1

   Abaqus 2025                                  Date 10-Feb-2026   Time 16:39:56
   For use by UNIVERSITAET STUTTGART under license from Dassault Systemes or its subsidiary.

                                                                                 
                                                                                 
 STEP    1     INCREMENT     1     STEP TIME    0.00    


                        S T E P       1     S T A T I C   A N A L Y S I S


                                                                                          

     AUTOMATIC TIME CONTROL WITH -
          A SUGGESTED INITIAL TIME INCREMENT OF                 1.00    
          AND A TOTAL TIME PERIOD OF                            1.00    
          THE MINIMUM TIME INCREMENT ALLOWED IS                1.000E-05
          THE MAXIMUM TIME INCREMENT ALLOWED IS                 1.00    

     LINEAR EQUATION SOLVER TYPE         DIRECT SPARSE

 CONVERGENCE TOLERANCE PARAMETERS FOR FORCE    
     CRITERION FOR RESIDUAL FORCE     FOR A NONLINEAR PROBLEM          5.000E-03
     CRITERION FOR DISP.    CORRECTION IN A NONLINEAR PROBLEM          1.000E-02
     INITIAL VALUE OF TIME AVERAGE FORCE                               1.000E-02
     AVERAGE FORCE     IS TIME AVERAGE FORCE    
     ALTERNATE CRIT. FOR RESIDUAL FORCE     FOR A NONLINEAR PROBLEM    2.000E-02
     CRITERION FOR ZERO FORCE     RELATIVE TO TIME AVRG. FORCE         1.000E-05
     CRITERION FOR RESIDUAL FORCE     WHEN THERE IS ZERO FLUX          1.000E-05
     CRITERION FOR DISP.    CORRECTION WHEN THERE IS ZERO FLUX         1.000E-03
     CRITERION FOR RESIDUAL FORCE     FOR A LINEAR INCREMENT           1.000E-08
     FIELD CONVERSION RATIO                                             1.00    
     CRITERION FOR ZERO FORCE     REL. TO TIME AVRG. MAX. FORCE        1.000E-05
     CRITERION FOR ZERO DISP.    RELATIVE TO CHARACTERISTIC LENGTH     1.000E-08

     VOLUMETRIC STRAIN COMPATIBILITY TOLERANCE FOR HYBRID SOLIDS       1.000E-05
     AXIAL STRAIN COMPATIBILITY TOLERANCE FOR HYBRID BEAMS             1.000E-05
     TRANS. SHEAR STRAIN COMPATIBILITY TOLERANCE FOR HYBRID BEAMS      1.000E-05
     SOFT CONTACT CONSTRAINT COMPATIBILITY TOLERANCE FOR P>P0          5.000E-03
     SOFT CONTACT CONSTRAINT COMPATIBILITY TOLERANCE FOR P=0.0         0.100    
     CONTACT FORCE ERROR TOLERANCE FOR CONVERT SDI=YES                 1.00    
     DISPLACEMENT COMPATIBILITY TOLERANCE FOR DCOUP ELEMENTS           1.000E-05
     ROTATION COMPATIBILITY TOLERANCE FOR DCOUP ELEMENTS               1.000E-05

 EQUILIBRIUM WILL BE CHECKED FOR SEVERE DISCONTINUITY ITERATIONS

 TIME INCREMENTATION CONTROL PARAMETERS:
     FIRST EQUILIBRIUM ITERATION FOR CONSECUTIVE DIVERGENCE CHECK              4
     EQUILIBRIUM ITERATION AT WHICH LOG. CONVERGENCE RATE CHECK BEGINS         8
     EQUILIBRIUM ITERATION AFTER WHICH ALTERNATE RESIDUAL IS USED              9
     MAXIMUM EQUILIBRIUM ITERATIONS ALLOWED                                   16
     EQUILIBRIUM ITERATION COUNT FOR CUT-BACK IN NEXT INCREMENT               10
     MAXIMUM EQUILIB. ITERS IN TWO INCREMENTS FOR TIME INCREMENT INCREASE      4
     MAXIMUM ITERATIONS FOR SEVERE DISCONTINUITIES                            50
     MAXIMUM ATTEMPTS ALLOWED IN AN INCREMENT                                  5
     MAXIMUM DISCON. ITERS IN TWO INCREMENTS FOR TIME INCREMENT INCREASE      50
     MAXIMUM CONTACT AUGMENTATIONS FOR *SURFACE BEHAVIOR,AUGMENTED LAGRANGE   50
     CUT-BACK FACTOR AFTER DIVERGENCE                                 0.2500    
     CUT-BACK FACTOR FOR TOO SLOW CONVERGENCE                         0.5000    
     CUT-BACK FACTOR AFTER TOO MANY EQUILIBRIUM ITERATIONS            0.7500    
     CUT-BACK FACTOR AFTER TOO MANY SEVERE DISCONTINUITY ITERATIONS   0.2500    
     CUT-BACK FACTOR AFTER PROBLEMS IN ELEMENT ASSEMBLY               0.2500    
     INCREASE FACTOR AFTER TWO INCREMENTS THAT CONVERGE QUICKLY        1.500    
     MAX. TIME INCREMENT INCREASE FACTOR ALLOWED                       1.500    
     MAX. TIME INCREMENT INCREASE FACTOR ALLOWED (DYNAMICS)            1.250    
     MAX. TIME INCREMENT INCREASE FACTOR ALLOWED (DIFFUSION)           2.000    
     MINIMUM TIME INCREMENT RATIO FOR EXTRAPOLATION TO OCCUR          0.1000    
     MAX. RATIO OF TIME INCREMENT TO STABILITY LIMIT                   1.000    
     FRACTION OF STABILITY LIMIT FOR NEW TIME INCREMENT               0.9500    
     TIME INCREMENT INCREASE FACTOR BEFORE A TIME POINT                1.000    
     GLOBAL STABILIZATION CONTROL IS NOT USED

          PRINT OF INCREMENT NUMBER, TIME, ETC., EVERY    1  INCREMENTS

     THE MAXIMUM NUMBER OF INCREMENTS IN THIS STEP IS                     100

          LARGE DISPLACEMENT THEORY WILL BE USED

     LINEAR EXTRAPOLATION WILL BE USED

     CHARACTERISTIC ELEMENT LENGTH     8.268E-04

     DETAILS REGARDING ACTUAL SOLUTION WAVEFRONT REQUESTED

     DETAILED OUTPUT OF DIAGNOSTICS TO DATABASE REQUESTED

     PRINT OF INCREMENT NUMBER, TIME, ETC., TO THE MESSAGE FILE EVERY     1  INCREMENTS

     COLLECTING MODEL CONSTRAINT INFORMATION FOR OVERCONSTRAINT CHECKS

     COLLECTING STEP CONSTRAINT INFORMATION FOR OVERCONSTRAINT CHECKS


  INCREMENT     1 STARTS. ATTEMPT NUMBER  1, TIME INCREMENT   1.00    
 
	SYMMETRIC PURE THREAD-BASED DIRECT SPARSE SOLVER RUNNING ON
 	1 HOST x 1 MPI RANK PER HOST x 1 THREAD PER RANK
        NUMBER OF EQUATIONS:  90774
        NUMBER OF RHS:        1
        NUMBER OF FLOPS:      6.037e+09
        SOLVER ELAPSED TIME:  524ms
 

 ***WARNING: THE SYSTEM MATRIX HAS 1 NEGATIVE EIGENVALUES.

     NEGATIVE EIGENVALUES MEAN THAT THE SYSTEM MATRIX IS NOT 
     POSITIVE DEFINITE:
     FOR EXAMPLE, A BIFURCATION (BUCKLING) LOAD MAY HAVE BEEN EXCEEDED.
   ELEMENT SPIRAL-1.329 IS DISTORTING EXCESSIVELY.
   ELEMENT SPIRAL-1.1044 IS DISTORTING EXCESSIVELY.
   ELEMENT SPIRAL-1.1045 IS DISTORTING EXCESSIVELY.
   ELEMENT SPIRAL-1.2549 IS DISTORTING EXCESSIVELY.
   ELEMENT SPIRAL-1.2550 IS DISTORTING EXCESSIVELY.
   ELEMENT SPIRAL-1.4614 IS DISTORTING EXCESSIVELY.
   ELEMENT SPIRAL-1.4615 IS DISTORTING EXCESSIVELY.
   ELEMENT SPIRAL-1.5462 IS DISTORTING EXCESSIVELY.
   ELEMENT SPIRAL-1.5463 IS DISTORTING EXCESSIVELY.
   ELEMENT SPIRAL-1.5500 IS DISTORTING EXCESSIVELY.
   ELEMENT SPIRAL-1.5501 IS DISTORTING EXCESSIVELY.

 ***WARNING: EXCESSIVE DISTORTION AT A TOTAL OF 11 INTEGRATION POINTS IN SOLID 
             (CONTINUUM) ELEMENTS
 

 ***NOTE: ELEMENTS ARE DISTORTING EXCESSIVELY. CONVERGENCE IS JUDGED UNLIKELY.


  INCREMENT     1 STARTS. ATTEMPT NUMBER  2, TIME INCREMENT  0.250    
 
	SYMMETRIC PURE THREAD-BASED DIRECT SPARSE SOLVER RUNNING ON
 	1 HOST x 1 MPI RANK PER HOST x 1 THREAD PER RANK
        NUMBER OF EQUATIONS:  90774
        NUMBER OF RHS:        1
        NUMBER OF FLOPS:      6.037e+09
        SOLVER ELAPSED TIME:  491ms

               CONVERGENCE CHECKS FOR EQUILIBRIUM ITERATION     1


 AVERAGE FORCE                      2.721E+03   TIME AVG. FORCE       2.721E+03
 LARGEST SCALED RESIDUAL FORCE      7.822E+04   AT NODE      11029   DOF  1
   INSTANCE: SPIRAL-1                                                                        
  CORRESPONDING RESIDUAL FORCE      7.822E+04
 LARGEST INCREMENT OF DISP.        -0.175       AT NODE       3156   DOF  3
   INSTANCE: SPIRAL-1                                                                        
 LARGEST CORRECTION TO DISP.       -0.175       AT NODE       3156   DOF  3
   INSTANCE: SPIRAL-1                                                                        
          FORCE     EQUILIBRIUM NOT ACHIEVED WITHIN TOLERANCE.
 
	SYMMETRIC PURE THREAD-BASED DIRECT SPARSE SOLVER RUNNING ON
 	1 HOST x 1 MPI RANK PER HOST x 1 THREAD PER RANK
        NUMBER OF EQUATIONS:  90774
        NUMBER OF RHS:        1
        NUMBER OF FLOPS:      6.037e+09
        SOLVER ELAPSED TIME:  490ms
 

 ***WARNING: THE SYSTEM MATRIX HAS 25311 NEGATIVE EIGENVALUES.
             EXPLANATIONS ARE SUGGESTED AFTER THE FIRST OCCURRENCE OF THIS MESSAGE.
   ELEMENT SPIRAL-1.2 IS DISTORTING EXCESSIVELY.
   ELEMENT SPIRAL-1.6 IS DISTORTING EXCESSIVELY.
   ELEMENT SPIRAL-1.8 IS DISTORTING EXCESSIVELY.
   ELEMENT SPIRAL-1.10 IS DISTORTING EXCESSIVELY.
   ELEMENT SPIRAL-1.11 IS DISTORTING EXCESSIVELY.
   ELEMENT SPIRAL-1.14 IS DISTORTING EXCESSIVELY.
   ELEMENT SPIRAL-1.15 IS DISTORTING EXCESSIVELY.
   ELEMENT SPIRAL-1.18 IS DISTORTING EXCESSIVELY.
   ELEMENT SPIRAL-1.19 IS DISTORTING EXCESSIVELY.
   ELEMENT SPIRAL-1.20 IS DISTORTING EXCESSIVELY.
   ELEMENT SPIRAL-1.21 IS DISTORTING EXCESSIVELY.
   ELEMENT SPIRAL-1.24 IS DISTORTING EXCESSIVELY.
   ELEMENT SPIRAL-1.25 IS DISTORTING EXCESSIVELY.
   ELEMENT SPIRAL-1.27 IS DISTORTING EXCESSIVELY.
   ELEMENT SPIRAL-1.29 IS DISTORTING EXCESSIVELY.
   ELEMENT SPIRAL-1.31 IS DISTORTING EXCESSIVELY.
   ELEMENT SPIRAL-1.32 IS DISTORTING EXCESSIVELY.
   ELEMENT SPIRAL-1.36 IS DISTORTING EXCESSIVELY.
   ELEMENT SPIRAL-1.38 IS DISTORTING EXCESSIVELY.
   ELEMENT SPIRAL-1.39 IS DISTORTING EXCESSIVELY.
   ELEMENT SPIRAL-1.40 IS DISTORTING EXCESSIVELY.
   ELEMENT SPIRAL-1.42 IS DISTORTING EXCESSIVELY.
   ELEMENT SPIRAL-1.43 IS DISTORTING EXCESSIVELY.
   ELEMENT SPIRAL-1.44 IS DISTORTING EXCESSIVELY.
   ELEMENT SPIRAL-1.46 IS DISTORTING EXCESSIVELY.
   ELEMENT SPIRAL-1.51 IS DISTORTING EXCESSIVELY.
   ELEMENT SPIRAL-1.54 IS DISTORTING EXCESSIVELY.
   ELEMENT SPIRAL-1.55 IS DISTORTING EXCESSIVELY.
   ELEMENT SPIRAL-1.56 IS DISTORTING EXCESSIVELY.
   ELEMENT SPIRAL-1.62 IS DISTORTING EXCESSIVELY.
   ELEMENT SPIRAL-1.64 IS DISTORTING EXCESSIVELY.
   ELEMENT SPIRAL-1.65 IS DISTORTING EXCESSIVELY.
   ELEMENT SPIRAL-1.68 IS DISTORTING EXCESSIVELY.
   ELEMENT SPIRAL-1.69 IS DISTORTING EXCESSIVELY.
   ELEMENT SPIRAL-1.70 IS DISTORTING EXCESSIVELY.
   ELEMENT SPIRAL-1.74 IS DISTORTING EXCESSIVELY.
   ELEMENT SPIRAL-1.75 IS DISTORTING EXCESSIVELY.
   ELEMENT SPIRAL-1.77 IS DISTORTING EXCESSIVELY.
   ELEMENT SPIRAL-1.78 IS DISTORTING EXCESSIVELY.
   ELEMENT SPIRAL-1.80 IS DISTORTING EXCESSIVELY.
   ELEMENT SPIRAL-1.81 IS DISTORTING EXCESSIVELY.
   ELEMENT SPIRAL-1.82 IS DISTORTING EXCESSIVELY.
   ELEMENT SPIRAL-1.84 IS DISTORTING EXCESSIVELY.
   ELEMENT SPIRAL-1.85 IS DISTORTING EXCESSIVELY.
   ELEMENT SPIRAL-1.86 IS DISTORTING EXCESSIVELY.
   ELEMENT SPIRAL-1.87 IS DISTORTING EXCESSIVELY.
   ELEMENT SPIRAL-1.88 IS DISTORTING EXCESSIVELY.
   ELEMENT SPIRAL-1.89 IS DISTORTING EXCESSIVELY.
   ELEMENT SPIRAL-1.90 IS DISTORTING EXCESSIVELY.
   ELEMENT SPIRAL-1.91 IS DISTORTING EXCESSIVELY.
   ELEMENT SPIRAL-1.93 IS DISTORTING EXCESSIVELY.
   ELEMENT SPIRAL-1.96 IS DISTORTING EXCESSIVELY.
   ELEMENT SPIRAL-1.98 IS DISTORTING EXCESSIVELY.
   ELEMENT SPIRAL-1.100 IS DISTORTING EXCESSIVELY.
   ELEMENT SPIRAL-1.102 IS DISTORTING EXCESSIVELY.
   ELEMENT SPIRAL-1.104 IS DISTORTING EXCESSIVELY.
   ELEMENT SPIRAL-1.107 IS DISTORTING EXCESSIVELY.
   ELEMENT SPIRAL-1.113 IS DISTORTING EXCESSIVELY.
   ELEMENT SPIRAL-1.115 IS DISTORTING EXCESSIVELY.
   ELEMENT SPIRAL-1.119 IS DISTORTING EXCESSIVELY.
   ELEMENT SPIRAL-1.121 IS DISTORTING EXCESSIVELY.
   ELEMENT SPIRAL-1.122 IS DISTORTING EXCESSIVELY.
   ELEMENT SPIRAL-1.124 IS DISTORTING EXCESSIVELY.
   ELEMENT SPIRAL-1.126 IS DISTORTING EXCESSIVELY.
   ELEMENT SPIRAL-1.130 IS DISTORTING EXCESSIVELY.
   ELEMENT SPIRAL-1.131 IS DISTORTING EXCESSIVELY.
   ELEMENT SPIRAL-1.137 IS DISTORTING EXCESSIVELY.
   ELEMENT SPIRAL-1.138 IS DISTORTING EXCESSIVELY.
   ELEMENT SPIRAL-1.140 IS DISTORTING EXCESSIVELY.
   ELEMENT SPIRAL-1.141 IS DISTORTING EXCESSIVELY.
   ELEMENT SPIRAL-1.142 IS DISTORTING EXCESSIVELY.
   ELEMENT SPIRAL-1.143 IS DISTORTING EXCESSIVELY.
   ELEMENT SPIRAL-1.145 IS DISTORTING EXCESSIVELY.
   ELEMENT SPIRAL-1.147 IS DISTORTING EXCESSIVELY.
   ELEMENT SPIRAL-1.149 IS DISTORTING EXCESSIVELY.
   ELEMENT SPIRAL-1.150 IS DISTORTING EXCESSIVELY.
   ELEMENT SPIRAL-1.151 IS DISTORTING EXCESSIVELY.
   ELEMENT SPIRAL-1.152 IS DISTORTING EXCESSIVELY.
   ELEMENT SPIRAL-1.153 IS DISTORTING EXCESSIVELY.
   ELEMENT SPIRAL-1.154 IS DISTORTING EXCESSIVELY.
   ELEMENT SPIRAL-1.155 IS DISTORTING EXCESSIVELY.
   ELEMENT SPIRAL-1.158 IS DISTORTING EXCESSIVELY.
   ELEMENT SPIRAL-1.162 IS DISTORTING EXCESSIVELY.
   ELEMENT SPIRAL-1.165 IS DISTORTING EXCESSIVELY.
   ELEMENT SPIRAL-1.166 IS DISTORTING EXCESSIVELY.
   ELEMENT SPIRAL-1.167 IS DISTORTING EXCESSIVELY.
   ELEMENT SPIRAL-1.168 IS DISTORTING EXCESSIVELY.
   ELEMENT SPIRAL-1.169 IS DISTORTING EXCESSIVELY.
   ELEMENT SPIRAL-1.170 IS DISTORTING EXCESSIVELY.
   ELEMENT SPIRAL-1.171 IS DISTORTING EXCESSIVELY.
   ELEMENT SPIRAL-1.172 IS DISTORTING EXCESSIVELY.
   ELEMENT SPIRAL-1.175 IS DISTORTING EXCESSIVELY.
   ELEMENT SPIRAL-1.176 IS DISTORTING EXCESSIVELY.
   ELEMENT SPIRAL-1.177 IS DISTORTING EXCESSIVELY.
   ELEMENT SPIRAL-1.178 IS DISTORTING EXCESSIVELY.
   ELEMENT SPIRAL-1.182 IS DISTORTING EXCESSIVELY.
   ELEMENT SPIRAL-1.183 IS DISTORTING EXCESSIVELY.
   ELEMENT SPIRAL-1.185 IS DISTORTING EXCESSIVELY.
   ELEMENT SPIRAL-1.186 IS DISTORTING EXCESSIVELY.
   ELEMENT SPIRAL-1.188 IS DISTORTING EXCESSIVELY.
   ELEMENT SPIRAL-1.189 IS DISTORTING EXCESSIVELY.
   ELEMENT SPIRAL-1.195 IS DISTORTING EXCESSIVELY.
   ELEMENT SPIRAL-1.200 IS DISTORTING EXCESSIVELY.
   ELEMENT SPIRAL-1.203 IS DISTORTING EXCESSIVELY.
   ELEMENT SPIRAL-1.204 IS DISTORTING EXCESSIVELY.
   ELEMENT SPIRAL-1.205 IS DISTORTING EXCESSIVELY.
   ELEMENT SPIRAL-1.206 IS DISTORTING EXCESSIVELY.
   ELEMENT SPIRAL-1.207 IS DISTORTING EXCESSIVELY.
   ELEMENT SPIRAL-1.208 IS DISTORTING EXCESSIVELY.
   ELEMENT SPIRAL-1.212 IS DISTORTING EXCESSIVELY.
   ELEMENT SPIRAL-1.214 IS DISTORTING EXCESSIVELY.
   ELEMENT SPIRAL-1.215 IS DISTORTING EXCESSIVELY.
   ELEMENT SPIRAL-1.216 IS DISTORTING EXCESSIVELY.
   ELEMENT SPIRAL-1.218 IS DISTORTING EXCESSIVELY.
   ELEMENT SPIRAL-1.219 IS DISTORTING EXCESSIVELY.
   ELEMENT SPIRAL-1.221 IS DISTORTING EXCESSIVELY.
   ELEMENT SPIRAL-1.222 IS DISTORTING EXCESSIVELY.
   ELEMENT SPIRAL-1.223 IS DISTORTING EXCESSIVELY.
   ELEMENT SPIRAL-1.225 IS DISTORTING EXCESSIVELY.
   ELEMENT SPIRAL-1.226 IS DISTORTING EXCESSIVELY.
   ELEMENT SPIRAL-1.230 IS DISTORTING EXCESSIVELY.
   ELEMENT SPIRAL-1.231 IS DISTORTING EXCESSIVELY.
   ELEMENT SPIRAL-1.232 IS DISTORTING EXCESSIVELY.
   ELEMENT SPIRAL-1.234 IS DISTORTING EXCESSIVELY.
   ELEMENT SPIRAL-1.236 IS DISTORTING EXCESSIVELY.
   ELEMENT SPIRAL-1.237 IS DISTORTING EXCESSIVELY.
   ELEMENT SPIRAL-1.239 IS DISTORTING EXCESSIVELY.
   ELEMENT SPIRAL-1.240 IS DISTORTING EXCESSIVELY.
   ELEMENT SPIRAL-1.242 IS DISTORTING EXCESSIVELY.
   ELEMENT SPIRAL-1.243 IS DISTORTING EXCESSIVELY.
   ELEMENT SPIRAL-1.244 IS DISTORTING EXCESSIVELY.
   ELEMENT SPIRAL-1.246 IS DISTORTING EXCESSIVELY.
   ELEMENT SPIRAL-1.247 IS DISTORTING EXCESSIVELY.
   ELEMENT SPIRAL-1.248 IS DISTORTING EXCESSIVELY.
   ELEMENT SPIRAL-1.249 IS DISTORTING EXCESSIVELY.
   ELEMENT SPIRAL-1.250 IS DISTORTING EXCESSIVELY.
   ELEMENT SPIRAL-1.252 IS DISTORTING EXCESSIVELY.
   ELEMENT SPIRAL-1.254 IS DISTORTING EXCESSIVELY.
   ELEMENT SPIRAL-1.261 IS DISTORTING EXCESSIVELY.
   ELEMENT SPIRAL-1.264 IS DISTORTING EXCESSIVELY.
   ELEMENT SPIRAL-1.265 IS DISTORTING EXCESSIVELY.
   ELEMENT SPIRAL-1.266 IS DISTORTING EXCESSIVELY.
   ELEMENT SPIRAL-1.269 IS DISTORTING EXCESSIVELY.
   ELEMENT SPIRAL-1.271 IS DISTORTING EXCESSIVELY.
   ELEMENT SPIRAL-1.273 IS DISTORTING EXCESSIVELY.
   ELEMENT SPIRAL-1.275 IS DISTORTING EXCESSIVELY.
   ELEMENT SPIRAL-1.276 IS DISTORTING EXCESSIVELY.
   ELEMENT SPIRAL-1.277 IS DISTORTING EXCESSIVELY.
   ELEMENT SPIRAL-1.278 IS DISTORTING EXCESSIVELY.
   ELEMENT SPIRAL-1.279 IS DISTORTING EXCESSIVELY.
   ELEMENT SPIRAL-1.281 IS DISTORTING EXCESSIVELY.
   ELEMENT SPIRAL-1.282 IS DISTORTING EXCESSIVELY.
   ELEMENT SPIRAL-1.285 IS DISTORTING EXCESSIVELY.
   ELEMENT SPIRAL-1.286 IS DISTORTING EXCESSIVELY.
   ELEMENT SPIRAL-1.288 IS DISTORTING EXCESSIVELY.
   ELEMENT SPIRAL-1.290 IS DISTORTING EXCESSIVELY.
   ELEMENT SPIRAL-1.291 IS DISTORTING EXCESSIVELY.
   ELEMENT SPIRAL-1.293 IS DISTORTING EXCESSIVELY.
   ELEMENT SPIRAL-1.295 IS DISTORTING EXCESSIVELY.
   ELEMENT SPIRAL-1.299 IS DISTORTING EXCESSIVELY.
   ELEMENT SPIRAL-1.301 IS DISTORTING EXCESSIVELY.
   ELEMENT SPIRAL-1.302 IS DISTORTING EXCESSIVELY.
   ELEMENT SPIRAL-1.304 IS DISTORTING EXCESSIVELY.
   ELEMENT SPIRAL-1.308 IS DISTORTING EXCESSIVELY.
   ELEMENT SPIRAL-1.309 IS DISTORTING EXCESSIVELY.
   ELEMENT SPIRAL-1.310 IS DISTORTING EXCESSIVELY.
   ELEMENT SPIRAL-1.312 IS DISTORTING EXCESSIVELY.
   ELEMENT SPIRAL-1.313 IS DISTORTING EXCESSIVELY.
   ELEMENT SPIRAL-1.314 IS DISTORTING EXCESSIVELY.
   ELEMENT SPIRAL-1.315 IS DISTORTING EXCESSIVELY.
   ELEMENT SPIRAL-1.316 IS DISTORTING EXCESSIVELY.
   ELEMENT SPIRAL-1.318 IS DISTORTING EXCESSIVELY.
   ELEMENT SPIRAL-1.322 IS DISTORTING EXCESSIVELY.
   ELEMENT SPIRAL-1.324 IS DISTORTING EXCESSIVELY.
   ELEMENT SPIRAL-1.329 IS DISTORTING EXCESSIVELY.
   ELEMENT SPIRAL-1.332 IS DISTORTING EXCESSIVELY.
   ELEMENT SPIRAL-1.333 IS DISTORTING EXCESSIVELY.
   ELEMENT SPIRAL-1.334 IS DISTORTING EXCESSIVELY.
   ELEMENT SPIRAL-1.335 IS DISTORTING EXCESSIVELY.
   ELEMENT SPIRAL-1.336 IS DISTORTING EXCESSIVELY.
   ELEMENT SPIRAL-1.337 IS DISTORTING EXCESSIVELY.
   ELEMENT SPIRAL-1.338 IS DISTORTING EXCESSIVELY.
   ELEMENT SPIRAL-1.339 IS DISTORTING EXCESSIVELY.
   ELEMENT SPIRAL-1.343 IS DISTORTING EXCESSIVELY.
   ELEMENT SPIRAL-1.344 IS DISTORTING EXCESSIVELY.
   ELEMENT SPIRAL-1.346 IS DISTORTING EXCESSIVELY.
   ELEMENT SPIRAL-1.347 IS DISTORTING EXCESSIVELY.
   ELEMENT SPIRAL-1.350 IS DISTORTING EXCESSIVELY.
   ELEMENT SPIRAL-1.354 IS DISTORTING EXCESSIVELY.
   ELEMENT SPIRAL-1.356 IS DISTORTING EXCESSIVELY.
   ELEMENT SPIRAL-1.357 IS DISTORTING EXCESSIVELY.
   ELEMENT SPIRAL-1.358 IS DISTORTING EXCESSIVELY.
   ELEMENT SPIRAL-1.359 IS DISTORTING EXCESSIVELY.
   ELEMENT SPIRAL-1.361 IS DISTORTING EXCESSIVELY.
   ELEMENT SPIRAL-1.363 IS DISTORTING EXCESSIVELY.
   ELEMENT SPIRAL-1.365 IS DISTORTING EXCESSIVELY.
   ELEMENT SPIRAL-1.369 IS DISTORTING EXCESSIVELY.
   ELEMENT SPIRAL-1.371 IS DISTORTING EXCESSIVELY.
   ELEMENT SPIRAL-1.372 IS DISTORTING EXCESSIVELY.
   ELEMENT SPIRAL-1.376 IS DISTORTING EXCESSIVELY.
   ELEMENT SPIRAL-1.377 IS DISTORTING EXCESSIVELY.
   ELEMENT SPIRAL-1.378 IS DISTORTING EXCESSIVELY.
   ELEMENT SPIRAL-1.380 IS DISTORTING EXCESSIVELY.
   ELEMENT SPIRAL-1.381 IS DISTORTING EXCESSIVELY.
   ELEMENT SPIRAL-1.382 IS DISTORTING EXCESSIVELY.
   ELEMENT SPIRAL-1.383 IS DISTORTING EXCESSIVELY.
   ELEMENT SPIRAL-1.384 IS DISTORTING EXCESSIVELY.
   ELEMENT SPIRAL-1.385 IS DISTORTING EXCESSIVELY.
   ELEMENT SPIRAL-1.386 IS DISTORTING EXCESSIVELY.
   ELEMENT SPIRAL-1.387 IS DISTORTING EXCESSIVELY.
   ELEMENT SPIRAL-1.390 IS DISTORTING EXCESSIVELY.
   ELEMENT SPIRAL-1.392 IS DISTORTING EXCESSIVELY.
   ELEMENT SPIRAL-1.393 IS DISTORTING EXCESSIVELY.
   ELEMENT SPIRAL-1.397 IS DISTORTING EXCESSIVELY.
   ELEMENT SPIRAL-1.398 IS DISTORTING EXCESSIVELY.
   ELEMENT SPIRAL-1.400 IS DISTORTING EXCESSIVELY.
   ELEMENT SPIRAL-1.403 IS DISTORTING EXCESSIVELY.
   ELEMENT SPIRAL-1.404 IS DISTORTING EXCESSIVELY.
   ELEMENT SPIRAL-1.407 IS DISTORTING EXCESSIVELY.
   ELEMENT SPIRAL-1.409 IS DISTORTING EXCESSIVELY.
   ELEMENT SPIRAL-1.411 IS DISTORTING EXCESSIVELY.
   ELEMENT SPIRAL-1.413 IS DISTORTING EXCESSIVELY.
   ELEMENT SPIRAL-1.414 IS DISTORTING EXCESSIVELY.
   ELEMENT SPIRAL-1.415 IS DISTORTING EXCESSIVELY.
   ELEMENT SPIRAL-1.416 IS DISTORTING EXCESSIVELY.
   ELEMENT SPIRAL-1.418 IS DISTORTING EXCESSIVELY.
   ELEMENT SPIRAL-1.421 IS DISTORTING EXCESSIVELY.
   ELEMENT SPIRAL-1.423 IS DISTORTING EXCESSIVELY.
   ELEMENT SPIRAL-1.424 IS DISTORTING EXCESSIVELY.
   ELEMENT SPIRAL-1.425 IS DISTORTING EXCESSIVELY.
   ELEMENT SPIRAL-1.427 IS DISTORTING EXCESSIVELY.
   ELEMENT SPIRAL-1.428 IS DISTORTING EXCESSIVELY.
   ELEMENT SPIRAL-1.429 IS DISTORTING EXCESSIVELY.
   ELEMENT SPIRAL-1.430 IS DISTORTING EXCESSIVELY.
   ELEMENT SPIRAL-1.432 IS DISTORTING EXCESSIVELY.
   ELEMENT SPIRAL-1.433 IS DISTORTING EXCESSIVELY.
   ELEMENT SPIRAL-1.434 IS DISTORTING EXCESSIVELY.
   ELEMENT SPIRAL-1.435 IS DISTORTING EXCESSIVELY.
   ELEMENT SPIRAL-1.436 IS DISTORTING EXCESSIVELY.
   ELEMENT SPIRAL-1.441 IS DISTORTING EXCESSIVELY.
   ELEMENT SPIRAL-1.443 IS DISTORTING EXCESSIVELY.
   ELEMENT SPIRAL-1.444 IS DISTORTING EXCESSIVELY.
   ELEMENT SPIRAL-1.445 IS DISTORTING EXCESSIVELY.
   ELEMENT SPIRAL-1.447 IS DISTORTING EXCESSIVELY.
   ELEMENT SPIRAL-1.452 IS DISTORTING EXCESSIVELY.
   ELEMENT SPIRAL-1.454 IS DISTORTING EXCESSIVELY.
   ELEMENT SPIRAL-1.455 IS DISTORTING EXCESSIVELY.
   ELEMENT SPIRAL-1.456 IS DISTORTING EXCESSIVELY.
   ELEMENT SPIRAL-1.458 IS DISTORTING EXCESSIVELY.
   ELEMENT SPIRAL-1.461 IS DISTORTING EXCESSIVELY.
   ELEMENT SPIRAL-1.462 IS DISTORTING EXCESSIVELY.
   ELEMENT SPIRAL-1.463 IS DISTORTING EXCESSIVELY.
   ELEMENT SPIRAL-1.468 IS DISTORTING EXCESSIVELY.
   ELEMENT SPIRAL-1.470 IS DISTORTING EXCESSIVELY.
   ELEMENT SPIRAL-1.472 IS DISTORTING EXCESSIVELY.
   ELEMENT SPIRAL-1.473 IS DISTORTING EXCESSIVELY.
   ELEMENT SPIRAL-1.474 IS DISTORTING EXCESSIVELY.
   ELEMENT SPIRAL-1.476 IS DISTORTING EXCESSIVELY.
   ELEMENT SPIRAL-1.477 IS DISTORTING EXCESSIVELY.
   ELEMENT SPIRAL-1.478 IS DISTORTING EXCESSIVELY.
   ELEMENT SPIRAL-1.482 IS DISTORTING EXCESSIVELY.
   ELEMENT SPIRAL-1.483 IS DISTORTING EXCESSIVELY.
   ELEMENT SPIRAL-1.484 IS DISTORTING EXCESSIVELY.
   ELEMENT SPIRAL-1.485 IS DISTORTING EXCESSIVELY.
   ELEMENT SPIRAL-1.490 IS DISTORTING EXCESSIVELY.
   ELEMENT SPIRAL-1.492 IS DISTORTING EXCESSIVELY.
   ELEMENT SPIRAL-1.493 IS DISTORTING EXCESSIVELY.
   ELEMENT SPIRAL-1.494 IS DISTORTING EXCESSIVELY.
   ELEMENT SPIRAL-1.495 IS DISTORTING EXCESSIVELY.
   ELEMENT SPIRAL-1.496 IS DISTORTING EXCESSIVELY.
   ELEMENT SPIRAL-1.497 IS DISTORTING EXCESSIVELY.
   ELEMENT SPIRAL-1.498 IS DISTORTING EXCESSIVELY.
   ELEMENT SPIRAL-1.499 IS DISTORTING EXCESSIVELY.
   ELEMENT SPIRAL-1.500 IS DISTORTING EXCESSIVELY.
   ELEMENT SPIRAL-1.501 IS DISTORTING EXCESSIVELY.
   ELEMENT SPIRAL-1.506 IS DISTORTING EXCESSIVELY.
   ELEMENT SPIRAL-1.508 IS DISTORTING EXCESSIVELY.
   ELEMENT SPIRAL-1.510 IS DISTORTING EXCESSIVELY.
   ELEMENT SPIRAL-1.511 IS DISTORTING EXCESSIVELY.
   ELEMENT SPIRAL-1.514 IS DISTORTING EXCESSIVELY.
   ELEMENT SPIRAL-1.518 IS DISTORTING EXCESSIVELY.
   ELEMENT SPIRAL-1.521 IS DISTORTING EXCESSIVELY.
   ELEMENT SPIRAL-1.522 IS DISTORTING EXCESSIVELY.
   ELEMENT SPIRAL-1.523 IS DISTORTING EXCESSIVELY.
   ELEMENT SPIRAL-1.524 IS DISTORTING EXCESSIVELY.
   ELEMENT SPIRAL-1.527 IS DISTORTING EXCESSIVELY.
   ELEMENT SPIRAL-1.528 IS DISTORTING EXCESSIVELY.
   ELEMENT SPIRAL-1.529 IS DISTORTING EXCESSIVELY.
   ELEMENT SPIRAL-1.531 IS DISTORTING EXCESSIVELY.
   ELEMENT SPIRAL-1.532 IS DISTORTING EXCESSIVELY.
   ELEMENT SPIRAL-1.536 IS DISTORTING EXCESSIVELY.
   ELEMENT SPIRAL-1.537 IS DISTORTING EXCESSIVELY.
   ELEMENT SPIRAL-1.538 IS DISTORTING EXCESSIVELY.
   ELEMENT SPIRAL-1.541 IS DISTORTING EXCESSIVELY.
   ELEMENT SPIRAL-1.544 IS DISTORTING EXCESSIVELY.
   ELEMENT SPIRAL-1.547 IS DISTORTING EXCESSIVELY.
   ELEMENT SPIRAL-1.548 IS DISTORTING EXCESSIVELY.
   ELEMENT SPIRAL-1.549 IS DISTORTING EXCESSIVELY.
   ELEMENT SPIRAL-1.553 IS DISTORTING EXCESSIVELY.
   ELEMENT SPIRAL-1.554 IS DISTORTING EXCESSIVELY.
   ELEMENT SPIRAL-1.557 IS DISTORTING EXCESSIVELY.
   ELEMENT SPIRAL-1.559 IS DISTORTING EXCESSIVELY.
   ELEMENT SPIRAL-1.564 IS DISTORTING EXCESSIVELY.
   ELEMENT SPIRAL-1.565 IS DISTORTING EXCESSIVELY.
   ELEMENT SPIRAL-1.567 IS DISTORTING EXCESSIVELY.
   ELEMENT SPIRAL-1.570 IS DISTORTING EXCESSIVELY.
   ELEMENT SPIRAL-1.571 IS DISTORTING EXCESSIVELY.
   ELEMENT SPIRAL-1.572 IS DISTORTING EXCESSIVELY.
   ELEMENT SPIRAL-1.574 IS DISTORTING EXCESSIVELY.
   ELEMENT SPIRAL-1.576 IS DISTORTING EXCESSIVELY.
   ELEMENT SPIRAL-1.577 IS DISTORTING EXCESSIVELY.
   ELEMENT SPIRAL-1.580 IS DISTORTING EXCESSIVELY.
   ELEMENT SPIRAL-1.581 IS DISTORTING EXCESSIVELY.
   ELEMENT SPIRAL-1.582 IS DISTORTING EXCESSIVELY.
   ELEMENT SPIRAL-1.583 IS DISTORTING EXCESSIVELY.
   ELEMENT SPIRAL-1.584 IS DISTORTING EXCESSIVELY.
   ELEMENT SPIRAL-1.587 IS DISTORTING EXCESSIVELY.
   ELEMENT SPIRAL-1.589 IS DISTORTING EXCESSIVELY.
   ELEMENT SPIRAL-1.590 IS DISTORTING EXCESSIVELY.
   ELEMENT SPIRAL-1.591 IS DISTORTING EXCESSIVELY.
   ELEMENT SPIRAL-1.592 IS DISTORTING EXCESSIVELY.
   ELEMENT SPIRAL-1.595 IS DISTORTING EXCESSIVELY.
   ELEMENT SPIRAL-1.598 IS DISTORTING EXCESSIVELY.
   ELEMENT SPIRAL-1.599 IS DISTORTING EXCESSIVELY.
   ELEMENT SPIRAL-1.601 IS DISTORTING EXCESSIVELY.
   ELEMENT SPIRAL-1.603 IS DISTORTING EXCESSIVELY.
   ELEMENT SPIRAL-1.616 IS DISTORTING EXCESSIVELY.
   ELEMENT SPIRAL-1.617 IS DISTORTING EXCESSIVELY.
   ELEMENT SPIRAL-1.618 IS DISTORTING EXCESSIVELY.
   ELEMENT SPIRAL-1.619 IS DISTORTING EXCESSIVELY.
   ELEMENT SPIRAL-1.620 IS DISTORTING EXCESSIVELY.
   ELEMENT SPIRAL-1.622 IS DISTORTING EXCESSIVELY.
   ELEMENT SPIRAL-1.623 IS DISTORTING EXCESSIVELY.
   ELEMENT SPIRAL-1.625 IS DISTORTING EXCESSIVELY.
   ELEMENT SPIRAL-1.626 IS DISTORTING EXCESSIVELY.
   ELEMENT SPIRAL-1.627 IS DISTORTING EXCESSIVELY.
   ELEMENT SPIRAL-1.629 IS DISTORTING EXCESSIVELY.
   ELEMENT SPIRAL-1.631 IS DISTORTING EXCESSIVELY.
   ELEMENT SPIRAL-1.632 IS DISTORTING EXCESSIVELY.
   ELEMENT SPIRAL-1.633 IS DISTORTING EXCESSIVELY.
   ELEMENT SPIRAL-1.636 IS DISTORTING EXCESSIVELY.
   ELEMENT SPIRAL-1.638 IS DISTORTING EXCESSIVELY.
   ELEMENT SPIRAL-1.639 IS DISTORTING EXCESSIVELY.
   ELEMENT SPIRAL-1.640 IS DISTORTING EXCESSIVELY.
   ELEMENT SPIRAL-1.641 IS DISTORTING EXCESSIVELY.
   ELEMENT SPIRAL-1.642 IS DISTORTING EXCESSIVELY.
   ELEMENT SPIRAL-1.643 IS DISTORTING EXCESSIVELY.
   ELEMENT SPIRAL-1.645 IS DISTORTING EXCESSIVELY.
   ELEMENT SPIRAL-1.646 IS DISTORTING EXCESSIVELY.
   ELEMENT SPIRAL-1.647 IS DISTORTING EXCESSIVELY.
   ELEMENT SPIRAL-1.649 IS DISTORTING EXCESSIVELY.
   ELEMENT SPIRAL-1.650 IS DISTORTING EXCESSIVELY.
   ELEMENT SPIRAL-1.657 IS DISTORTING EXCESSIVELY.
   ELEMENT SPIRAL-1.658 IS DISTORTING EXCESSIVELY.
   ELEMENT SPIRAL-1.661 IS DISTORTING EXCESSIVELY.
   ELEMENT SPIRAL-1.662 IS DISTORTING EXCESSIVELY.
   ELEMENT SPIRAL-1.664 IS DISTORTING EXCESSIVELY.
   ELEMENT SPIRAL-1.665 IS DISTORTING EXCESSIVELY.
   ELEMENT SPIRAL-1.669 IS DISTORTING EXCESSIVELY.
   ELEMENT SPIRAL-1.674 IS DISTORTING EXCESSIVELY.
   ELEMENT SPIRAL-1.675 IS DISTORTING EXCESSIVELY.
   ELEMENT SPIRAL-1.682 IS DISTORTING EXCESSIVELY.
   ELEMENT SPIRAL-1.683 IS DISTORTING EXCESSIVELY.
   ELEMENT SPIRAL-1.684 IS DISTORTING EXCESSIVELY.
   ELEMENT SPIRAL-1.687 IS DISTORTING EXCESSIVELY.
   ELEMENT SPIRAL-1.690 IS DISTORTING EXCESSIVELY.
   ELEMENT SPIRAL-1.693 IS DISTORTING EXCESSIVELY.
   ELEMENT SPIRAL-1.695 IS DISTORTING EXCESSIVELY.
   ELEMENT SPIRAL-1.697 IS DISTORTING EXCESSIVELY.
   ELEMENT SPIRAL-1.698 IS DISTORTING EXCESSIVELY.
   ELEMENT SPIRAL-1.702 IS DISTORTING EXCESSIVELY.
   ELEMENT SPIRAL-1.704 IS DISTORTING EXCESSIVELY.
   ELEMENT SPIRAL-1.706 IS DISTORTING EXCESSIVELY.
   ELEMENT SPIRAL-1.707 IS DISTORTING EXCESSIVELY.
   ELEMENT SPIRAL-1.709 IS DISTORTING EXCESSIVELY.
   ELEMENT SPIRAL-1.712 IS DISTORTING EXCESSIVELY.
   ELEMENT SPIRAL-1.713 IS DISTORTING EXCESSIVELY.
   ELEMENT SPIRAL-1.714 IS DISTORTING EXCESSIVELY.
   ELEMENT SPIRAL-1.716 IS DISTORTING EXCESSIVELY.
   ELEMENT SPIRAL-1.717 IS DISTORTING EXCESSIVELY.
   ELEMENT SPIRAL-1.719 IS DISTORTING EXCESSIVELY.
   ELEMENT SPIRAL-1.722 IS DISTORTING EXCESSIVELY.
   ELEMENT SPIRAL-1.723 IS DISTORTING EXCESSIVELY.
   ELEMENT SPIRAL-1.724 IS DISTORTING EXCESSIVELY.
   ELEMENT SPIRAL-1.726 IS DISTORTING EXCESSIVELY.
   ELEMENT SPIRAL-1.727 IS DISTORTING EXCESSIVELY.
   ELEMENT SPIRAL-1.728 IS DISTORTING EXCESSIVELY.
   ELEMENT SPIRAL-1.729 IS DISTORTING EXCESSIVELY.
   ELEMENT SPIRAL-1.730 IS DISTORTING EXCESSIVELY.
   ELEMENT SPIRAL-1.733 IS DISTORTING EXCESSIVELY.
   ELEMENT SPIRAL-1.736 IS DISTORTING EXCESSIVELY.
   ELEMENT SPIRAL-1.737 IS DISTORTING EXCESSIVELY.
   ELEMENT SPIRAL-1.739 IS DISTORTING EXCESSIVELY.
   ELEMENT SPIRAL-1.741 IS DISTORTING EXCESSIVELY.
   ELEMENT SPIRAL-1.742 IS DISTORTING EXCESSIVELY.
   ELEMENT SPIRAL-1.743 IS DISTORTING EXCESSIVELY.
   ELEMENT SPIRAL-1.746 IS DISTORTING EXCESSIVELY.
   ELEMENT SPIRAL-1.747 IS DISTORTING EXCESSIVELY.
   ELEMENT SPIRAL-1.748 IS DISTORTING EXCESSIVELY.
   ELEMENT SPIRAL-1.750 IS DISTORTING EXCESSIVELY.
   ELEMENT SPIRAL-1.751 IS DISTORTING EXCESSIVELY.
   ELEMENT SPIRAL-1.754 IS DISTORTING EXCESSIVELY.
   ELEMENT SPIRAL-1.755 IS DISTORTING EXCESSIVELY.
   ELEMENT SPIRAL-1.756 IS DISTORTING EXCESSIVELY.
   ELEMENT SPIRAL-1.758 IS DISTORTING EXCESSIVELY.
   ELEMENT SPIRAL-1.760 IS DISTORTING EXCESSIVELY.
   ELEMENT SPIRAL-1.761 IS DISTORTING EXCESSIVELY.
   ELEMENT SPIRAL-1.762 IS DISTORTING EXCESSIVELY.
   ELEMENT SPIRAL-1.763 IS DISTORTING EXCESSIVELY.
   ELEMENT SPIRAL-1.765 IS DISTORTING EXCESSIVELY.
   ELEMENT SPIRAL-1.767 IS DISTORTING EXCESSIVELY.
   ELEMENT SPIRAL-1.768 IS DISTORTING EXCESSIVELY.
   ELEMENT SPIRAL-1.772 IS DISTORTING EXCESSIVELY.
   ELEMENT SPIRAL-1.773 IS DISTORTING EXCESSIVELY.
   ELEMENT SPIRAL-1.774 IS DISTORTING EXCESSIVELY.
   ELEMENT SPIRAL-1.775 IS DISTORTING EXCESSIVELY.
   ELEMENT SPIRAL-1.776 IS DISTORTING EXCESSIVELY.
   ELEMENT SPIRAL-1.777 IS DISTORTING EXCESSIVELY.
   ELEMENT SPIRAL-1.779 IS DISTORTING EXCESSIVELY.
   ELEMENT SPIRAL-1.780 IS DISTORTING EXCESSIVELY.
   ELEMENT SPIRAL-1.784 IS DISTORTING EXCESSIVELY.
   ELEMENT SPIRAL-1.785 IS DISTORTING EXCESSIVELY.
   ELEMENT SPIRAL-1.787 IS DISTORTING EXCESSIVELY.
   ELEMENT SPIRAL-1.788 IS DISTORTING EXCESSIVELY.
   ELEMENT SPIRAL-1.791 IS DISTORTING EXCESSIVELY.
   ELEMENT SPIRAL-1.792 IS DISTORTING EXCESSIVELY.
   ELEMENT SPIRAL-1.794 IS DISTORTING EXCESSIVELY.
   ELEMENT SPIRAL-1.795 IS DISTORTING EXCESSIVELY.
   ELEMENT SPIRAL-1.797 IS DISTORTING EXCESSIVELY.
   ELEMENT SPIRAL-1.799 IS DISTORTING EXCESSIVELY.
   ELEMENT SPIRAL-1.804 IS DISTORTING EXCESSIVELY.
   ELEMENT SPIRAL-1.806 IS DISTORTING EXCESSIVELY.
   ELEMENT SPIRAL-1.807 IS DISTORTING EXCESSIVELY.
   ELEMENT SPIRAL-1.808 IS DISTORTING EXCESSIVELY.
   ELEMENT SPIRAL-1.810 IS DISTORTING EXCESSIVELY.
   ELEMENT SPIRAL-1.811 IS DISTORTING EXCESSIVELY.
   ELEMENT SPIRAL-1.813 IS DISTORTING EXCESSIVELY.
   ELEMENT SPIRAL-1.814 IS DISTORTING EXCESSIVELY.
   ELEMENT SPIRAL-1.815 IS DISTORTING EXCESSIVELY.
   ELEMENT SPIRAL-1.817 IS DISTORTING EXCESSIVELY.
   ELEMENT SPIRAL-1.818 IS DISTORTING EXCESSIVELY.
   ELEMENT SPIRAL-1.819 IS DISTORTING EXCESSIVELY.
   ELEMENT SPIRAL-1.821 IS DISTORTING EXCESSIVELY.
   ELEMENT SPIRAL-1.823 IS DISTORTING EXCESSIVELY.
   ELEMENT SPIRAL-1.824 IS DISTORTING EXCESSIVELY.
   ELEMENT SPIRAL-1.826 IS DISTORTING EXCESSIVELY.
   ELEMENT SPIRAL-1.829 IS DISTORTING EXCESSIVELY.
   ELEMENT SPIRAL-1.831 IS DISTORTING EXCESSIVELY.
   ELEMENT SPIRAL-1.832 IS DISTORTING EXCESSIVELY.
   ELEMENT SPIRAL-1.833 IS DISTORTING EXCESSIVELY.
   ELEMENT SPIRAL-1.834 IS DISTORTING EXCESSIVELY.
   ELEMENT SPIRAL-1.836 IS DISTORTING EXCESSIVELY.
   ELEMENT SPIRAL-1.837 IS DISTORTING EXCESSIVELY.
   ELEMENT SPIRAL-1.839 IS DISTORTING EXCESSIVELY.
   ELEMENT SPIRAL-1.840 IS DISTORTING EXCESSIVELY.
   ELEMENT SPIRAL-1.841 IS DISTORTING EXCESSIVELY.
   ELEMENT SPIRAL-1.842 IS DISTORTING EXCESSIVELY.
   ELEMENT SPIRAL-1.843 IS DISTORTING EXCESSIVELY.
   ELEMENT SPIRAL-1.846 IS DISTORTING EXCESSIVELY.
   ELEMENT SPIRAL-1.849 IS DISTORTING EXCESSIVELY.
   ELEMENT SPIRAL-1.851 IS DISTORTING EXCESSIVELY.
   ELEMENT SPIRAL-1.852 IS DISTORTING EXCESSIVELY.
   ELEMENT SPIRAL-1.853 IS DISTORTING EXCESSIVELY.
   ELEMENT SPIRAL-1.856 IS DISTORTING EXCESSIVELY.
   ELEMENT SPIRAL-1.857 IS DISTORTING EXCESSIVELY.
   ELEMENT SPIRAL-1.858 IS DISTORTING EXCESSIVELY.
   ELEMENT SPIRAL-1.860 IS DISTORTING EXCESSIVELY.
   ELEMENT SPIRAL-1.863 IS DISTORTING EXCESSIVELY.
   ELEMENT SPIRAL-1.864 IS DISTORTING EXCESSIVELY.
   ELEMENT SPIRAL-1.866 IS DISTORTING EXCESSIVELY.
   ELEMENT SPIRAL-1.867 IS DISTORTING EXCESSIVELY.
   ELEMENT SPIRAL-1.868 IS DISTORTING EXCESSIVELY.
   ELEMENT SPIRAL-1.869 IS DISTORTING EXCESSIVELY.
   ELEMENT SPIRAL-1.870 IS DISTORTING EXCESSIVELY.
   ELEMENT SPIRAL-1.872 IS DISTORTING EXCESSIVELY.
   ELEMENT SPIRAL-1.874 IS DISTORTING EXCESSIVELY.
   ELEMENT SPIRAL-1.877 IS DISTORTING EXCESSIVELY.
   ELEMENT SPIRAL-1.881 IS DISTORTING EXCESSIVELY.
   ELEMENT SPIRAL-1.883 IS DISTORTING EXCESSIVELY.
   ELEMENT SPIRAL-1.884 IS DISTORTING EXCESSIVELY.
   ELEMENT SPIRAL-1.885 IS DISTORTING EXCESSIVELY.
   ELEMENT SPIRAL-1.889 IS DISTORTING EXCESSIVELY.
   ELEMENT SPIRAL-1.892 IS DISTORTING EXCESSIVELY.
   ELEMENT SPIRAL-1.897 IS DISTORTING EXCESSIVELY.
   ELEMENT SPIRAL-1.898 IS DISTORTING EXCESSIVELY.
   ELEMENT SPIRAL-1.901 IS DISTORTING EXCESSIVELY.
   ELEMENT SPIRAL-1.904 IS DISTORTING EXCESSIVELY.
   ELEMENT SPIRAL-1.905 IS DISTORTING EXCESSIVELY.
   ELEMENT SPIRAL-1.907 IS DISTORTING EXCESSIVELY.
   ELEMENT SPIRAL-1.909 IS DISTORTING EXCESSIVELY.
   ELEMENT SPIRAL-1.911 IS DISTORTING EXCESSIVELY.
   ELEMENT SPIRAL-1.912 IS DISTORTING EXCESSIVELY.
   ELEMENT SPIRAL-1.913 IS DISTORTING EXCESSIVELY.
   ELEMENT SPIRAL-1.915 IS DISTORTING EXCESSIVELY.
   ELEMENT SPIRAL-1.916 IS DISTORTING EXCESSIVELY.
   ELEMENT SPIRAL-1.918 IS DISTORTING EXCESSIVELY.
   ELEMENT SPIRAL-1.919 IS DISTORTING EXCESSIVELY.
   ELEMENT SPIRAL-1.920 IS DISTORTING EXCESSIVELY.
   ELEMENT SPIRAL-1.921 IS DISTORTING EXCESSIVELY.
   ELEMENT SPIRAL-1.925 IS DISTORTING EXCESSIVELY.
   ELEMENT SPIRAL-1.927 IS DISTORTING EXCESSIVELY.
   ELEMENT SPIRAL-1.929 IS DISTORTING EXCESSIVELY.
   ELEMENT SPIRAL-1.931 IS DISTORTING EXCESSIVELY.
   ELEMENT SPIRAL-1.932 IS DISTORTING EXCESSIVELY.
   ELEMENT SPIRAL-1.935 IS DISTORTING EXCESSIVELY.
   ELEMENT SPIRAL-1.936 IS DISTORTING EXCESSIVELY.
   ELEMENT SPIRAL-1.937 IS DISTORTING EXCESSIVELY.
   ELEMENT SPIRAL-1.938 IS DISTORTING EXCESSIVELY.
   ELEMENT SPIRAL-1.939 IS DISTORTING EXCESSIVELY.
   ELEMENT SPIRAL-1.942 IS DISTORTING EXCESSIVELY.
   ELEMENT SPIRAL-1.943 IS DISTORTING EXCESSIVELY.
   ELEMENT SPIRAL-1.953 IS DISTORTING EXCESSIVELY.
   ELEMENT SPIRAL-1.956 IS DISTORTING EXCESSIVELY.
   ELEMENT SPIRAL-1.957 IS DISTORTING EXCESSIVELY.
   ELEMENT SPIRAL-1.958 IS DISTORTING EXCESSIVELY.
   ELEMENT SPIRAL-1.966 IS DISTORTING EXCESSIVELY.
   ELEMENT SPIRAL-1.970 IS DISTORTING EXCESSIVELY.
   ELEMENT SPIRAL-1.972 IS DISTORTING EXCESSIVELY.
   ELEMENT SPIRAL-1.974 IS DISTORTING EXCESSIVELY.
   ELEMENT SPIRAL-1.976 IS DISTORTING EXCESSIVELY.
   ELEMENT SPIRAL-1.977 IS DISTORTING EXCESSIVELY.
   ELEMENT SPIRAL-1.980 IS DISTORTING EXCESSIVELY.
   ELEMENT SPIRAL-1.986 IS DISTORTING EXCESSIVELY.
   ELEMENT SPIRAL-1.987 IS DISTORTING EXCESSIVELY.
   ELEMENT SPIRAL-1.988 IS DISTORTING EXCESSIVELY.
   ELEMENT SPIRAL-1.989 IS DISTORTING EXCESSIVELY.
   ELEMENT SPIRAL-1.990 IS DISTORTING EXCESSIVELY.
   ELEMENT SPIRAL-1.991 IS DISTORTING EXCESSIVELY.
   ELEMENT SPIRAL-1.996 IS DISTORTING EXCESSIVELY.
   ELEMENT SPIRAL-1.997 IS DISTORTING EXCESSIVELY.
   ELEMENT SPIRAL-1.1000 IS DISTORTING EXCESSIVELY.
   ELEMENT SPIRAL-1.1001 IS DISTORTING EXCESSIVELY.
   ELEMENT SPIRAL-1.1003 IS DISTORTING EXCESSIVELY.
   ELEMENT SPIRAL-1.1004 IS DISTORTING EXCESSIVELY.
   ELEMENT SPIRAL-1.1009 IS DISTORTING EXCESSIVELY.
   ELEMENT SPIRAL-1.1012 IS DISTORTING EXCESSIVELY.
   ELEMENT SPIRAL-1.1015 IS DISTORTING EXCESSIVELY.
   ELEMENT SPIRAL-1.1017 IS DISTORTING EXCESSIVELY.
   ELEMENT SPIRAL-1.1018 IS DISTORTING EXCESSIVELY.
   ELEMENT SPIRAL-1.1019 IS DISTORTING EXCESSIVELY.
   ELEMENT SPIRAL-1.1022 IS DISTORTING EXCESSIVELY.
   ELEMENT SPIRAL-1.1023 IS DISTORTING EXCESSIVELY.
   ELEMENT SPIRAL-1.1027 IS DISTORTING EXCESSIVELY.
   ELEMENT SPIRAL-1.1029 IS DISTORTING EXCESSIVELY.
   ELEMENT SPIRAL-1.1031 IS DISTORTING EXCESSIVELY.
   ELEMENT SPIRAL-1.1032 IS DISTORTING EXCESSIVELY.
   ELEMENT SPIRAL-1.1034 IS DISTORTING EXCESSIVELY.
   ELEMENT SPIRAL-1.1037 IS DISTORTING EXCESSIVELY.
   ELEMENT SPIRAL-1.1041 IS DISTORTING EXCESSIVELY.
   ELEMENT SPIRAL-1.1042 IS DISTORTING EXCESSIVELY.
   ELEMENT SPIRAL-1.1044 IS DISTORTING EXCESSIVELY.
   ELEMENT SPIRAL-1.1047 IS DISTORTING EXCESSIVELY.
   ELEMENT SPIRAL-1.1053 IS DISTORTING EXCESSIVELY.
   ELEMENT SPIRAL-1.1055 IS DISTORTING EXCESSIVELY.
   ELEMENT SPIRAL-1.1058 IS DISTORTING EXCESSIVELY.
   ELEMENT SPIRAL-1.1059 IS DISTORTING EXCESSIVELY.
   ELEMENT SPIRAL-1.1062 IS DISTORTING EXCESSIVELY.
   ELEMENT SPIRAL-1.1063 IS DISTORTING EXCESSIVELY.
   ELEMENT SPIRAL-1.1064 IS DISTORTING EXCESSIVELY.
   ELEMENT SPIRAL-1.1065 IS DISTORTING EXCESSIVELY.
   ELEMENT SPIRAL-1.1068 IS DISTORTING EXCESSIVELY.
   ELEMENT SPIRAL-1.1070 IS DISTORTING EXCESSIVELY.
   ELEMENT SPIRAL-1.1071 IS DISTORTING EXCESSIVELY.
   ELEMENT SPIRAL-1.1073 IS DISTORTING EXCESSIVELY.
   ELEMENT SPIRAL-1.1076 IS DISTORTING EXCESSIVELY.
   ELEMENT SPIRAL-1.1077 IS DISTORTING EXCESSIVELY.
   ELEMENT SPIRAL-1.1078 IS DISTORTING EXCESSIVELY.
   ELEMENT SPIRAL-1.1079 IS DISTORTING EXCESSIVELY.
   ELEMENT SPIRAL-1.1080 IS DISTORTING EXCESSIVELY.
   ELEMENT SPIRAL-1.1081 IS DISTORTING EXCESSIVELY.
   ELEMENT SPIRAL-1.1082 IS DISTORTING EXCESSIVELY.
   ELEMENT SPIRAL-1.1086 IS DISTORTING EXCESSIVELY.
   ELEMENT SPIRAL-1.1089 IS DISTORTING EXCESSIVELY.
   ELEMENT SPIRAL-1.1090 IS DISTORTING EXCESSIVELY.
   ELEMENT SPIRAL-1.1094 IS DISTORTING EXCESSIVELY.
   ELEMENT SPIRAL-1.1095 IS DISTORTING EXCESSIVELY.
   ELEMENT SPIRAL-1.1097 IS DISTORTING EXCESSIVELY.
   ELEMENT SPIRAL-1.1098 IS DISTORTING EXCESSIVELY.
   ELEMENT SPIRAL-1.1101 IS DISTORTING EXCESSIVELY.
   ELEMENT SPIRAL-1.1102 IS DISTORTING EXCESSIVELY.
   ELEMENT SPIRAL-1.1103 IS DISTORTING EXCESSIVELY.
   ELEMENT SPIRAL-1.1104 IS DISTORTING EXCESSIVELY.
   ELEMENT SPIRAL-1.1105 IS DISTORTING EXCESSIVELY.
   ELEMENT SPIRAL-1.1106 IS DISTORTING EXCESSIVELY.
   ELEMENT SPIRAL-1.1107 IS DISTORTING EXCESSIVELY.
   ELEMENT SPIRAL-1.1108 IS DISTORTING EXCESSIVELY.
   ELEMENT SPIRAL-1.1110 IS DISTORTING EXCESSIVELY.
   ELEMENT SPIRAL-1.1111 IS DISTORTING EXCESSIVELY.
   ELEMENT SPIRAL-1.1112 IS DISTORTING EXCESSIVELY.
   ELEMENT SPIRAL-1.1115 IS DISTORTING EXCESSIVELY.
   ELEMENT SPIRAL-1.1116 IS DISTORTING EXCESSIVELY.
   ELEMENT SPIRAL-1.1119 IS DISTORTING EXCESSIVELY.
   ELEMENT SPIRAL-1.1122 IS DISTORTING EXCESSIVELY.
   ELEMENT SPIRAL-1.1124 IS DISTORTING EXCESSIVELY.
   ELEMENT SPIRAL-1.1127 IS DISTORTING EXCESSIVELY.
   ELEMENT SPIRAL-1.1128 IS DISTORTING EXCESSIVELY.
   ELEMENT SPIRAL-1.1129 IS DISTORTING EXCESSIVELY.
   ELEMENT SPIRAL-1.1135 IS DISTORTING EXCESSIVELY.
   ELEMENT SPIRAL-1.1136 IS DISTORTING EXCESSIVELY.
   ELEMENT SPIRAL-1.1138 IS DISTORTING EXCESSIVELY.
   ELEMENT SPIRAL-1.1142 IS DISTORTING EXCESSIVELY.
   ELEMENT SPIRAL-1.1149 IS DISTORTING EXCESSIVELY.
   ELEMENT SPIRAL-1.1150 IS DISTORTING EXCESSIVELY.
   ELEMENT SPIRAL-1.1156 IS DISTORTING EXCESSIVELY.
   ELEMENT SPIRAL-1.1157 IS DISTORTING EXCESSIVELY.
   ELEMENT SPIRAL-1.1158 IS DISTORTING EXCESSIVELY.
   ELEMENT SPIRAL-1.1159 IS DISTORTING EXCESSIVELY.
   ELEMENT SPIRAL-1.1167 IS DISTORTING EXCESSIVELY.
   ELEMENT SPIRAL-1.1172 IS DISTORTING EXCESSIVELY.
   ELEMENT SPIRAL-1.1174 IS DISTORTING EXCESSIVELY.
   ELEMENT SPIRAL-1.1175 IS DISTORTING EXCESSIVELY.
   ELEMENT SPIRAL-1.1176 IS DISTORTING EXCESSIVELY.
   ELEMENT SPIRAL-1.1178 IS DISTORTING EXCESSIVELY.
   ELEMENT SPIRAL-1.1179 IS DISTORTING EXCESSIVELY.
   ELEMENT SPIRAL-1.1180 IS DISTORTING EXCESSIVELY.
   ELEMENT SPIRAL-1.1181 IS DISTORTING EXCESSIVELY.
   ELEMENT SPIRAL-1.1189 IS DISTORTING EXCESSIVELY.
   ELEMENT SPIRAL-1.1191 IS DISTORTING EXCESSIVELY.
   ELEMENT SPIRAL-1.1194 IS DISTORTING EXCESSIVELY.
   ELEMENT SPIRAL-1.1195 IS DISTORTING EXCESSIVELY.
   ELEMENT SPIRAL-1.1198 IS DISTORTING EXCESSIVELY.
   ELEMENT SPIRAL-1.1199 IS DISTORTING EXCESSIVELY.
   ELEMENT SPIRAL-1.1200 IS DISTORTING EXCESSIVELY.
   ELEMENT SPIRAL-1.1201 IS DISTORTING EXCESSIVELY.
   ELEMENT SPIRAL-1.1202 IS DISTORTING EXCESSIVELY.
   ELEMENT SPIRAL-1.1204 IS DISTORTING EXCESSIVELY.
   ELEMENT SPIRAL-1.1206 IS DISTORTING EXCESSIVELY.
   ELEMENT SPIRAL-1.1209 IS DISTORTING EXCESSIVELY.
   ELEMENT SPIRAL-1.1212 IS DISTORTING EXCESSIVELY.
   ELEMENT SPIRAL-1.1216 IS DISTORTING EXCESSIVELY.
   ELEMENT SPIRAL-1.1217 IS DISTORTING EXCESSIVELY.
   ELEMENT SPIRAL-1.1221 IS DISTORTING EXCESSIVELY.
   ELEMENT SPIRAL-1.1223 IS DISTORTING EXCESSIVELY.
   ELEMENT SPIRAL-1.1224 IS DISTORTING EXCESSIVELY.
   ELEMENT SPIRAL-1.1225 IS DISTORTING EXCESSIVELY.
   ELEMENT SPIRAL-1.1226 IS DISTORTING EXCESSIVELY.
   ELEMENT SPIRAL-1.1228 IS DISTORTING EXCESSIVELY.
   ELEMENT SPIRAL-1.1229 IS DISTORTING EXCESSIVELY.
   ELEMENT SPIRAL-1.1231 IS DISTORTING EXCESSIVELY.
   ELEMENT SPIRAL-1.1232 IS DISTORTING EXCESSIVELY.
   ELEMENT SPIRAL-1.1235 IS DISTORTING EXCESSIVELY.
   ELEMENT SPIRAL-1.1236 IS DISTORTING EXCESSIVELY.
   ELEMENT SPIRAL-1.1240 IS DISTORTING EXCESSIVELY.
   ELEMENT SPIRAL-1.1243 IS DISTORTING EXCESSIVELY.
   ELEMENT SPIRAL-1.1245 IS DISTORTING EXCESSIVELY.
   ELEMENT SPIRAL-1.1246 IS DISTORTING EXCESSIVELY.
   ELEMENT SPIRAL-1.1247 IS DISTORTING EXCESSIVELY.
   ELEMENT SPIRAL-1.1250 IS DISTORTING EXCESSIVELY.
   ELEMENT SPIRAL-1.1253 IS DISTORTING EXCESSIVELY.
   ELEMENT SPIRAL-1.1254 IS DISTORTING EXCESSIVELY.
   ELEMENT SPIRAL-1.1256 IS DISTORTING EXCESSIVELY.
   ELEMENT SPIRAL-1.1257 IS DISTORTING EXCESSIVELY.
   ELEMENT SPIRAL-1.1261 IS DISTORTING EXCESSIVELY.
   ELEMENT SPIRAL-1.1263 IS DISTORTING EXCESSIVELY.
   ELEMENT SPIRAL-1.1269 IS DISTORTING EXCESSIVELY.
   ELEMENT SPIRAL-1.1274 IS DISTORTING EXCESSIVELY.
   ELEMENT SPIRAL-1.1275 IS DISTORTING EXCESSIVELY.
   ELEMENT SPIRAL-1.1276 IS DISTORTING EXCESSIVELY.
   ELEMENT SPIRAL-1.1277 IS DISTORTING EXCESSIVELY.
   ELEMENT SPIRAL-1.1278 IS DISTORTING EXCESSIVELY.
   ELEMENT SPIRAL-1.1279 IS DISTORTING EXCESSIVELY.
   ELEMENT SPIRAL-1.1280 IS DISTORTING EXCESSIVELY.
   ELEMENT SPIRAL-1.1281 IS DISTORTING EXCESSIVELY.
   ELEMENT SPIRAL-1.1283 IS DISTORTING EXCESSIVELY.
   ELEMENT SPIRAL-1.1285 IS DISTORTING EXCESSIVELY.
   ELEMENT SPIRAL-1.1286 IS DISTORTING EXCESSIVELY.
   ELEMENT SPIRAL-1.1288 IS DISTORTING EXCESSIVELY.
   ELEMENT SPIRAL-1.1293 IS DISTORTING EXCESSIVELY.
   ELEMENT SPIRAL-1.1295 IS DISTORTING EXCESSIVELY.
   ELEMENT SPIRAL-1.1296 IS DISTORTING EXCESSIVELY.
   ELEMENT SPIRAL-1.1298 IS DISTORTING EXCESSIVELY.
   ELEMENT SPIRAL-1.1299 IS DISTORTING EXCESSIVELY.
   ELEMENT SPIRAL-1.1300 IS DISTORTING EXCESSIVELY.
   ELEMENT SPIRAL-1.1302 IS DISTORTING EXCESSIVELY.
   ELEMENT SPIRAL-1.1303 IS DISTORTING EXCESSIVELY.
   ELEMENT SPIRAL-1.1306 IS DISTORTING EXCESSIVELY.
   ELEMENT SPIRAL-1.1307 IS DISTORTING EXCESSIVELY.
   ELEMENT SPIRAL-1.1308 IS DISTORTING EXCESSIVELY.
   ELEMENT SPIRAL-1.1309 IS DISTORTING EXCESSIVELY.
   ELEMENT SPIRAL-1.1311 IS DISTORTING EXCESSIVELY.
   ELEMENT SPIRAL-1.1313 IS DISTORTING EXCESSIVELY.
   ELEMENT SPIRAL-1.1315 IS DISTORTING EXCESSIVELY.
   ELEMENT SPIRAL-1.1316 IS DISTORTING EXCESSIVELY.
   ELEMENT SPIRAL-1.1317 IS DISTORTING EXCESSIVELY.
   ELEMENT SPIRAL-1.1318 IS DISTORTING EXCESSIVELY.
   ELEMENT SPIRAL-1.1319 IS DISTORTING EXCESSIVELY.
   ELEMENT SPIRAL-1.1321 IS DISTORTING EXCESSIVELY.
   ELEMENT SPIRAL-1.1323 IS DISTORTING EXCESSIVELY.
   ELEMENT SPIRAL-1.1324 IS DISTORTING EXCESSIVELY.
   ELEMENT SPIRAL-1.1325 IS DISTORTING EXCESSIVELY.
   ELEMENT SPIRAL-1.1328 IS DISTORTING EXCESSIVELY.
   ELEMENT SPIRAL-1.1329 IS DISTORTING EXCESSIVELY.
   ELEMENT SPIRAL-1.1330 IS DISTORTING EXCESSIVELY.
   ELEMENT SPIRAL-1.1331 IS DISTORTING EXCESSIVELY.
   ELEMENT SPIRAL-1.1332 IS DISTORTING EXCESSIVELY.
   ELEMENT SPIRAL-1.1338 IS DISTORTING EXCESSIVELY.
   ELEMENT SPIRAL-1.1339 IS DISTORTING EXCESSIVELY.
   ELEMENT SPIRAL-1.1341 IS DISTORTING EXCESSIVELY.
   ELEMENT SPIRAL-1.1342 IS DISTORTING EXCESSIVELY.
   ELEMENT SPIRAL-1.1343 IS DISTORTING EXCESSIVELY.
   ELEMENT SPIRAL-1.1346 IS DISTORTING EXCESSIVELY.
   ELEMENT SPIRAL-1.1347 IS DISTORTING EXCESSIVELY.
   ELEMENT SPIRAL-1.1348 IS DISTORTING EXCESSIVELY.
   ELEMENT SPIRAL-1.1351 IS DISTORTING EXCESSIVELY.
   ELEMENT SPIRAL-1.1354 IS DISTORTING EXCESSIVELY.
   ELEMENT SPIRAL-1.1355 IS DISTORTING EXCESSIVELY.
   ELEMENT SPIRAL-1.1360 IS DISTORTING EXCESSIVELY.
   ELEMENT SPIRAL-1.1364 IS DISTORTING EXCESSIVELY.
   ELEMENT SPIRAL-1.1366 IS DISTORTING EXCESSIVELY.
   ELEMENT SPIRAL-1.1367 IS DISTORTING EXCESSIVELY.
   ELEMENT SPIRAL-1.1368 IS DISTORTING EXCESSIVELY.
   ELEMENT SPIRAL-1.1370 IS DISTORTING EXCESSIVELY.
   ELEMENT SPIRAL-1.1371 IS DISTORTING EXCESSIVELY.
   ELEMENT SPIRAL-1.1375 IS DISTORTING EXCESSIVELY.
   ELEMENT SPIRAL-1.1376 IS DISTORTING EXCESSIVELY.
   ELEMENT SPIRAL-1.1378 IS DISTORTING EXCESSIVELY.
   ELEMENT SPIRAL-1.1380 IS DISTORTING EXCESSIVELY.
   ELEMENT SPIRAL-1.1382 IS DISTORTING EXCESSIVELY.
   ELEMENT SPIRAL-1.1383 IS DISTORTING EXCESSIVELY.
   ELEMENT SPIRAL-1.1385 IS DISTORTING EXCESSIVELY.
   ELEMENT SPIRAL-1.1386 IS DISTORTING EXCESSIVELY.
   ELEMENT SPIRAL-1.1387 IS DISTORTING EXCESSIVELY.
   ELEMENT SPIRAL-1.1388 IS DISTORTING EXCESSIVELY.
   ELEMENT SPIRAL-1.1389 IS DISTORTING EXCESSIVELY.
   ELEMENT SPIRAL-1.1391 IS DISTORTING EXCESSIVELY.
   ELEMENT SPIRAL-1.1392 IS DISTORTING EXCESSIVELY.
   ELEMENT SPIRAL-1.1393 IS DISTORTING EXCESSIVELY.
   ELEMENT SPIRAL-1.1394 IS DISTORTING EXCESSIVELY.
   ELEMENT SPIRAL-1.1395 IS DISTORTING EXCESSIVELY.
   ELEMENT SPIRAL-1.1396 IS DISTORTING EXCESSIVELY.
   ELEMENT SPIRAL-1.1397 IS DISTORTING EXCESSIVELY.
   ELEMENT SPIRAL-1.1398 IS DISTORTING EXCESSIVELY.
   ELEMENT SPIRAL-1.1400 IS DISTORTING EXCESSIVELY.
   ELEMENT SPIRAL-1.1402 IS DISTORTING EXCESSIVELY.
   ELEMENT SPIRAL-1.1403 IS DISTORTING EXCESSIVELY.
   ELEMENT SPIRAL-1.1405 IS DISTORTING EXCESSIVELY.
   ELEMENT SPIRAL-1.1406 IS DISTORTING EXCESSIVELY.
   ELEMENT SPIRAL-1.1407 IS DISTORTING EXCESSIVELY.
   ELEMENT SPIRAL-1.1409 IS DISTORTING EXCESSIVELY.
   ELEMENT SPIRAL-1.1415 IS DISTORTING EXCESSIVELY.
   ELEMENT SPIRAL-1.1417 IS DISTORTING EXCESSIVELY.
   ELEMENT SPIRAL-1.1419 IS DISTORTING EXCESSIVELY.
   ELEMENT SPIRAL-1.1424 IS DISTORTING EXCESSIVELY.
   ELEMENT SPIRAL-1.1425 IS DISTORTING EXCESSIVELY.
   ELEMENT SPIRAL-1.1426 IS DISTORTING EXCESSIVELY.
   ELEMENT SPIRAL-1.1428 IS DISTORTING EXCESSIVELY.
   ELEMENT SPIRAL-1.1429 IS DISTORTING EXCESSIVELY.
   ELEMENT SPIRAL-1.1431 IS DISTORTING EXCESSIVELY.
   ELEMENT SPIRAL-1.1432 IS DISTORTING EXCESSIVELY.
   ELEMENT SPIRAL-1.1433 IS DISTORTING EXCESSIVELY.
   ELEMENT SPIRAL-1.1434 IS DISTORTING EXCESSIVELY.
   ELEMENT SPIRAL-1.1438 IS DISTORTING EXCESSIVELY.
   ELEMENT SPIRAL-1.1439 IS DISTORTING EXCESSIVELY.
   ELEMENT SPIRAL-1.1440 IS DISTORTING EXCESSIVELY.
   ELEMENT SPIRAL-1.1442 IS DISTORTING EXCESSIVELY.
   ELEMENT SPIRAL-1.1444 IS DISTORTING EXCESSIVELY.
   ELEMENT SPIRAL-1.1446 IS DISTORTING EXCESSIVELY.
   ELEMENT SPIRAL-1.1448 IS DISTORTING EXCESSIVELY.
   ELEMENT SPIRAL-1.1451 IS DISTORTING EXCESSIVELY.
   ELEMENT SPIRAL-1.1453 IS DISTORTING EXCESSIVELY.
   ELEMENT SPIRAL-1.1457 IS DISTORTING EXCESSIVELY.
   ELEMENT SPIRAL-1.1458 IS DISTORTING EXCESSIVELY.
   ELEMENT SPIRAL-1.1465 IS DISTORTING EXCESSIVELY.
   ELEMENT SPIRAL-1.1467 IS DISTORTING EXCESSIVELY.
   ELEMENT SPIRAL-1.1468 IS DISTORTING EXCESSIVELY.
   ELEMENT SPIRAL-1.1469 IS DISTORTING EXCESSIVELY.
   ELEMENT SPIRAL-1.1472 IS DISTORTING EXCESSIVELY.
   ELEMENT SPIRAL-1.1476 IS DISTORTING EXCESSIVELY.
   ELEMENT SPIRAL-1.1477 IS DISTORTING EXCESSIVELY.
   ELEMENT SPIRAL-1.1479 IS DISTORTING EXCESSIVELY.
   ELEMENT SPIRAL-1.1481 IS DISTORTING EXCESSIVELY.
   ELEMENT SPIRAL-1.1482 IS DISTORTING EXCESSIVELY.
   ELEMENT SPIRAL-1.1484 IS DISTORTING EXCESSIVELY.
   ELEMENT SPIRAL-1.1485 IS DISTORTING EXCESSIVELY.
   ELEMENT SPIRAL-1.1486 IS DISTORTING EXCESSIVELY.
   ELEMENT SPIRAL-1.1487 IS DISTORTING EXCESSIVELY.
   ELEMENT SPIRAL-1.1490 IS DISTORTING EXCESSIVELY.
   ELEMENT SPIRAL-1.1491 IS DISTORTING EXCESSIVELY.
   ELEMENT SPIRAL-1.1493 IS DISTORTING EXCESSIVELY.
   ELEMENT SPIRAL-1.1496 IS DISTORTING EXCESSIVELY.
   ELEMENT SPIRAL-1.1497 IS DISTORTING EXCESSIVELY.
   ELEMENT SPIRAL-1.1501 IS DISTORTING EXCESSIVELY.
   ELEMENT SPIRAL-1.1505 IS DISTORTING EXCESSIVELY.
   ELEMENT SPIRAL-1.1506 IS DISTORTING EXCESSIVELY.
   ELEMENT SPIRAL-1.1507 IS DISTORTING EXCESSIVELY.
   ELEMENT SPIRAL-1.1511 IS DISTORTING EXCESSIVELY.
   ELEMENT SPIRAL-1.1513 IS DISTORTING EXCESSIVELY.
   ELEMENT SPIRAL-1.1514 IS DISTORTING EXCESSIVELY.
   ELEMENT SPIRAL-1.1516 IS DISTORTING EXCESSIVELY.
   ELEMENT SPIRAL-1.1518 IS DISTORTING EXCESSIVELY.
   ELEMENT SPIRAL-1.1519 IS DISTORTING EXCESSIVELY.
   ELEMENT SPIRAL-1.1520 IS DISTORTING EXCESSIVELY.
   ELEMENT SPIRAL-1.1521 IS DISTORTING EXCESSIVELY.
   ELEMENT SPIRAL-1.1522 IS DISTORTING EXCESSIVELY.
   ELEMENT SPIRAL-1.1526 IS DISTORTING EXCESSIVELY.
   ELEMENT SPIRAL-1.1527 IS DISTORTING EXCESSIVELY.
   ELEMENT SPIRAL-1.1529 IS DISTORTING EXCESSIVELY.
   ELEMENT SPIRAL-1.1534 IS DISTORTING EXCESSIVELY.
   ELEMENT SPIRAL-1.1538 IS DISTORTING EXCESSIVELY.
   ELEMENT SPIRAL-1.1539 IS DISTORTING EXCESSIVELY.
   ELEMENT SPIRAL-1.1540 IS DISTORTING EXCESSIVELY.
   ELEMENT SPIRAL-1.1541 IS DISTORTING EXCESSIVELY.
   ELEMENT SPIRAL-1.1542 IS DISTORTING EXCESSIVELY.
   ELEMENT SPIRAL-1.1544 IS DISTORTING EXCESSIVELY.
   ELEMENT SPIRAL-1.1545 IS DISTORTING EXCESSIVELY.
   ELEMENT SPIRAL-1.1547 IS DISTORTING EXCESSIVELY.
   ELEMENT SPIRAL-1.1550 IS DISTORTING EXCESSIVELY.
   ELEMENT SPIRAL-1.1551 IS DISTORTING EXCESSIVELY.
   ELEMENT SPIRAL-1.1555 IS DISTORTING EXCESSIVELY.
   ELEMENT SPIRAL-1.1560 IS DISTORTING EXCESSIVELY.
   ELEMENT SPIRAL-1.1563 IS DISTORTING EXCESSIVELY.
   ELEMENT SPIRAL-1.1564 IS DISTORTING EXCESSIVELY.
   ELEMENT SPIRAL-1.1565 IS DISTORTING EXCESSIVELY.
   ELEMENT SPIRAL-1.1566 IS DISTORTING EXCESSIVELY.
   ELEMENT SPIRAL-1.1568 IS DISTORTING EXCESSIVELY.
   ELEMENT SPIRAL-1.1572 IS DISTORTING EXCESSIVELY.
   ELEMENT SPIRAL-1.1573 IS DISTORTING EXCESSIVELY.
   ELEMENT SPIRAL-1.1574 IS DISTORTING EXCESSIVELY.
   ELEMENT SPIRAL-1.1575 IS DISTORTING EXCESSIVELY.
   ELEMENT SPIRAL-1.1576 IS DISTORTING EXCESSIVELY.
   ELEMENT SPIRAL-1.1579 IS DISTORTING EXCESSIVELY.
   ELEMENT SPIRAL-1.1580 IS DISTORTING EXCESSIVELY.
   ELEMENT SPIRAL-1.1581 IS DISTORTING EXCESSIVELY.
   ELEMENT SPIRAL-1.1584 IS DISTORTING EXCESSIVELY.
   ELEMENT SPIRAL-1.1585 IS DISTORTING EXCESSIVELY.
   ELEMENT SPIRAL-1.1587 IS DISTORTING EXCESSIVELY.
   ELEMENT SPIRAL-1.1588 IS DISTORTING EXCESSIVELY.
   ELEMENT SPIRAL-1.1590 IS DISTORTING EXCESSIVELY.
   ELEMENT SPIRAL-1.1591 IS DISTORTING EXCESSIVELY.
   ELEMENT SPIRAL-1.1592 IS DISTORTING EXCESSIVELY.
   ELEMENT SPIRAL-1.1598 IS DISTORTING EXCESSIVELY.
   ELEMENT SPIRAL-1.1600 IS DISTORTING EXCESSIVELY.
   ELEMENT SPIRAL-1.1602 IS DISTORTING EXCESSIVELY.
   ELEMENT SPIRAL-1.1603 IS DISTORTING EXCESSIVELY.
   ELEMENT SPIRAL-1.1606 IS DISTORTING EXCESSIVELY.
   ELEMENT SPIRAL-1.1609 IS DISTORTING EXCESSIVELY.
   ELEMENT SPIRAL-1.1615 IS DISTORTING EXCESSIVELY.
   ELEMENT SPIRAL-1.1616 IS DISTORTING EXCESSIVELY.
   ELEMENT SPIRAL-1.1617 IS DISTORTING EXCESSIVELY.
   ELEMENT SPIRAL-1.1618 IS DISTORTING EXCESSIVELY.
   ELEMENT SPIRAL-1.1619 IS DISTORTING EXCESSIVELY.
   ELEMENT SPIRAL-1.1620 IS DISTORTING EXCESSIVELY.
   ELEMENT SPIRAL-1.1622 IS DISTORTING EXCESSIVELY.
   ELEMENT SPIRAL-1.1623 IS DISTORTING EXCESSIVELY.
   ELEMENT SPIRAL-1.1624 IS DISTORTING EXCESSIVELY.
   ELEMENT SPIRAL-1.1625 IS DISTORTING EXCESSIVELY.
   ELEMENT SPIRAL-1.1626 IS DISTORTING EXCESSIVELY.
   ELEMENT SPIRAL-1.1627 IS DISTORTING EXCESSIVELY.
   ELEMENT SPIRAL-1.1631 IS DISTORTING EXCESSIVELY.
   ELEMENT SPIRAL-1.1634 IS DISTORTING EXCESSIVELY.
   ELEMENT SPIRAL-1.1635 IS DISTORTING EXCESSIVELY.
   ELEMENT SPIRAL-1.1636 IS DISTORTING EXCESSIVELY.
   ELEMENT SPIRAL-1.1644 IS DISTORTING EXCESSIVELY.
   ELEMENT SPIRAL-1.1645 IS DISTORTING EXCESSIVELY.
   ELEMENT SPIRAL-1.1651 IS DISTORTING EXCESSIVELY.
   ELEMENT SPIRAL-1.1653 IS DISTORTING EXCESSIVELY.
   ELEMENT SPIRAL-1.1655 IS DISTORTING EXCESSIVELY.
   ELEMENT SPIRAL-1.1657 IS DISTORTING EXCESSIVELY.
   ELEMENT SPIRAL-1.1658 IS DISTORTING EXCESSIVELY.
   ELEMENT SPIRAL-1.1659 IS DISTORTING EXCESSIVELY.
   ELEMENT SPIRAL-1.1661 IS DISTORTING EXCESSIVELY.
   ELEMENT SPIRAL-1.1662 IS DISTORTING EXCESSIVELY.
   ELEMENT SPIRAL-1.1664 IS DISTORTING EXCESSIVELY.
   ELEMENT SPIRAL-1.1665 IS DISTORTING EXCESSIVELY.
   ELEMENT SPIRAL-1.1666 IS DISTORTING EXCESSIVELY.
   ELEMENT SPIRAL-1.1667 IS DISTORTING EXCESSIVELY.
   ELEMENT SPIRAL-1.1670 IS DISTORTING EXCESSIVELY.
   ELEMENT SPIRAL-1.1676 IS DISTORTING EXCESSIVELY.
   ELEMENT SPIRAL-1.1677 IS DISTORTING EXCESSIVELY.
   ELEMENT SPIRAL-1.1680 IS DISTORTING EXCESSIVELY.
   ELEMENT SPIRAL-1.1682 IS DISTORTING EXCESSIVELY.
   ELEMENT SPIRAL-1.1683 IS DISTORTING EXCESSIVELY.
   ELEMENT SPIRAL-1.1691 IS DISTORTING EXCESSIVELY.
   ELEMENT SPIRAL-1.1692 IS DISTORTING EXCESSIVELY.
   ELEMENT SPIRAL-1.1693 IS DISTORTING EXCESSIVELY.
   ELEMENT SPIRAL-1.1694 IS DISTORTING EXCESSIVELY.
   ELEMENT SPIRAL-1.1697 IS DISTORTING EXCESSIVELY.
   ELEMENT SPIRAL-1.1698 IS DISTORTING EXCESSIVELY.
   ELEMENT SPIRAL-1.1700 IS DISTORTING EXCESSIVELY.
   ELEMENT SPIRAL-1.1701 IS DISTORTING EXCESSIVELY.
   ELEMENT SPIRAL-1.1703 IS DISTORTING EXCESSIVELY.
   ELEMENT SPIRAL-1.1704 IS DISTORTING EXCESSIVELY.
   ELEMENT SPIRAL-1.1705 IS DISTORTING EXCESSIVELY.
   ELEMENT SPIRAL-1.1707 IS DISTORTING EXCESSIVELY.
   ELEMENT SPIRAL-1.1708 IS DISTORTING EXCESSIVELY.
   ELEMENT SPIRAL-1.1709 IS DISTORTING EXCESSIVELY.
   ELEMENT SPIRAL-1.1711 IS DISTORTING EXCESSIVELY.
   ELEMENT SPIRAL-1.1713 IS DISTORTING EXCESSIVELY.
   ELEMENT SPIRAL-1.1714 IS DISTORTING EXCESSIVELY.
   ELEMENT SPIRAL-1.1715 IS DISTORTING EXCESSIVELY.
   ELEMENT SPIRAL-1.1716 IS DISTORTING EXCESSIVELY.
   ELEMENT SPIRAL-1.1718 IS DISTORTING EXCESSIVELY.
   ELEMENT SPIRAL-1.1719 IS DISTORTING EXCESSIVELY.
   ELEMENT SPIRAL-1.1720 IS DISTORTING EXCESSIVELY.
   ELEMENT SPIRAL-1.1724 IS DISTORTING EXCESSIVELY.
   ELEMENT SPIRAL-1.1726 IS DISTORTING EXCESSIVELY.
   ELEMENT SPIRAL-1.1728 IS DISTORTING EXCESSIVELY.
   ELEMENT SPIRAL-1.1729 IS DISTORTING EXCESSIVELY.
   ELEMENT SPIRAL-1.1730 IS DISTORTING EXCESSIVELY.
   ELEMENT SPIRAL-1.1734 IS DISTORTING EXCESSIVELY.
   ELEMENT SPIRAL-1.1737 IS DISTORTING EXCESSIVELY.
   ELEMENT SPIRAL-1.1739 IS DISTORTING EXCESSIVELY.
   ELEMENT SPIRAL-1.1742 IS DISTORTING EXCESSIVELY.
   ELEMENT SPIRAL-1.1744 IS DISTORTING EXCESSIVELY.
   ELEMENT SPIRAL-1.1746 IS DISTORTING EXCESSIVELY.
   ELEMENT SPIRAL-1.1747 IS DISTORTING EXCESSIVELY.
   ELEMENT SPIRAL-1.1748 IS DISTORTING EXCESSIVELY.
   ELEMENT SPIRAL-1.1749 IS DISTORTING EXCESSIVELY.
   ELEMENT SPIRAL-1.1750 IS DISTORTING EXCESSIVELY.
   ELEMENT SPIRAL-1.1752 IS DISTORTING EXCESSIVELY.
   ELEMENT SPIRAL-1.1753 IS DISTORTING EXCESSIVELY.
   ELEMENT SPIRAL-1.1754 IS DISTORTING EXCESSIVELY.
   ELEMENT SPIRAL-1.1755 IS DISTORTING EXCESSIVELY.
   ELEMENT SPIRAL-1.1757 IS DISTORTING EXCESSIVELY.
   ELEMENT SPIRAL-1.1758 IS DISTORTING EXCESSIVELY.
   ELEMENT SPIRAL-1.1759 IS DISTORTING EXCESSIVELY.
   ELEMENT SPIRAL-1.1761 IS DISTORTING EXCESSIVELY.
   ELEMENT SPIRAL-1.1763 IS DISTORTING EXCESSIVELY.
   ELEMENT SPIRAL-1.1764 IS DISTORTING EXCESSIVELY.
   ELEMENT SPIRAL-1.1765 IS DISTORTING EXCESSIVELY.
   ELEMENT SPIRAL-1.1767 IS DISTORTING EXCESSIVELY.
   ELEMENT SPIRAL-1.1768 IS DISTORTING EXCESSIVELY.
   ELEMENT SPIRAL-1.1770 IS DISTORTING EXCESSIVELY.
   ELEMENT SPIRAL-1.1772 IS DISTORTING EXCESSIVELY.
   ELEMENT SPIRAL-1.1774 IS DISTORTING EXCESSIVELY.
   ELEMENT SPIRAL-1.1775 IS DISTORTING EXCESSIVELY.
   ELEMENT SPIRAL-1.1776 IS DISTORTING EXCESSIVELY.
   ELEMENT SPIRAL-1.1777 IS DISTORTING EXCESSIVELY.
   ELEMENT SPIRAL-1.1780 IS DISTORTING EXCESSIVELY.
   ELEMENT SPIRAL-1.1784 IS DISTORTING EXCESSIVELY.
   ELEMENT SPIRAL-1.1787 IS DISTORTING EXCESSIVELY.
   ELEMENT SPIRAL-1.1788 IS DISTORTING EXCESSIVELY.
   ELEMENT SPIRAL-1.1789 IS DISTORTING EXCESSIVELY.
   ELEMENT SPIRAL-1.1791 IS DISTORTING EXCESSIVELY.
   ELEMENT SPIRAL-1.1794 IS DISTORTING EXCESSIVELY.
   ELEMENT SPIRAL-1.1796 IS DISTORTING EXCESSIVELY.
   ELEMENT SPIRAL-1.1798 IS DISTORTING EXCESSIVELY.
   ELEMENT SPIRAL-1.1799 IS DISTORTING EXCESSIVELY.
   ELEMENT SPIRAL-1.1801 IS DISTORTING EXCESSIVELY.
   ELEMENT SPIRAL-1.1802 IS DISTORTING EXCESSIVELY.
   ELEMENT SPIRAL-1.1805 IS DISTORTING EXCESSIVELY.
   ELEMENT SPIRAL-1.1806 IS DISTORTING EXCESSIVELY.
   ELEMENT SPIRAL-1.1807 IS DISTORTING EXCESSIVELY.
   ELEMENT SPIRAL-1.1808 IS DISTORTING EXCESSIVELY.
   ELEMENT SPIRAL-1.1809 IS DISTORTING EXCESSIVELY.
   ELEMENT SPIRAL-1.1812 IS DISTORTING EXCESSIVELY.
   ELEMENT SPIRAL-1.1813 IS DISTORTING EXCESSIVELY.
   ELEMENT SPIRAL-1.1816 IS DISTORTING EXCESSIVELY.
   ELEMENT SPIRAL-1.1819 IS DISTORTING EXCESSIVELY.
   ELEMENT SPIRAL-1.1821 IS DISTORTING EXCESSIVELY.
   ELEMENT SPIRAL-1.1825 IS DISTORTING EXCESSIVELY.
   ELEMENT SPIRAL-1.1826 IS DISTORTING EXCESSIVELY.
   ELEMENT SPIRAL-1.1829 IS DISTORTING EXCESSIVELY.
   ELEMENT SPIRAL-1.1830 IS DISTORTING EXCESSIVELY.
   ELEMENT SPIRAL-1.1831 IS DISTORTING EXCESSIVELY.
   ELEMENT SPIRAL-1.1833 IS DISTORTING EXCESSIVELY.
   ELEMENT SPIRAL-1.1834 IS DISTORTING EXCESSIVELY.
   ELEMENT SPIRAL-1.1835 IS DISTORTING EXCESSIVELY.
   ELEMENT SPIRAL-1.1836 IS DISTORTING EXCESSIVELY.
   ELEMENT SPIRAL-1.1839 IS DISTORTING EXCESSIVELY.
   ELEMENT SPIRAL-1.1840 IS DISTORTING EXCESSIVELY.
   ELEMENT SPIRAL-1.1841 IS DISTORTING EXCESSIVELY.
   ELEMENT SPIRAL-1.1844 IS DISTORTING EXCESSIVELY.
   ELEMENT SPIRAL-1.1848 IS DISTORTING EXCESSIVELY.
   ELEMENT SPIRAL-1.1849 IS DISTORTING EXCESSIVELY.
   ELEMENT SPIRAL-1.1852 IS DISTORTING EXCESSIVELY.
   ELEMENT SPIRAL-1.1853 IS DISTORTING EXCESSIVELY.
   ELEMENT SPIRAL-1.1855 IS DISTORTING EXCESSIVELY.
   ELEMENT SPIRAL-1.1856 IS DISTORTING EXCESSIVELY.
   ELEMENT SPIRAL-1.1857 IS DISTORTING EXCESSIVELY.
   ELEMENT SPIRAL-1.1863 IS DISTORTING EXCESSIVELY.
   ELEMENT SPIRAL-1.1865 IS DISTORTING EXCESSIVELY.
   ELEMENT SPIRAL-1.1867 IS DISTORTING EXCESSIVELY.
   ELEMENT SPIRAL-1.1868 IS DISTORTING EXCESSIVELY.
   ELEMENT SPIRAL-1.1869 IS DISTORTING EXCESSIVELY.
   ELEMENT SPIRAL-1.1872 IS DISTORTING EXCESSIVELY.
   ELEMENT SPIRAL-1.1873 IS DISTORTING EXCESSIVELY.
   ELEMENT SPIRAL-1.1875 IS DISTORTING EXCESSIVELY.
   ELEMENT SPIRAL-1.1876 IS DISTORTING EXCESSIVELY.
   ELEMENT SPIRAL-1.1878 IS DISTORTING EXCESSIVELY.
   ELEMENT SPIRAL-1.1879 IS DISTORTING EXCESSIVELY.
   ELEMENT SPIRAL-1.1880 IS DISTORTING EXCESSIVELY.
   ELEMENT SPIRAL-1.1881 IS DISTORTING EXCESSIVELY.
   ELEMENT SPIRAL-1.1883 IS DISTORTING EXCESSIVELY.
   ELEMENT SPIRAL-1.1885 IS DISTORTING EXCESSIVELY.
   ELEMENT SPIRAL-1.1888 IS DISTORTING EXCESSIVELY.
   ELEMENT SPIRAL-1.1890 IS DISTORTING EXCESSIVELY.
   ELEMENT SPIRAL-1.1892 IS DISTORTING EXCESSIVELY.
   ELEMENT SPIRAL-1.1893 IS DISTORTING EXCESSIVELY.
   ELEMENT SPIRAL-1.1894 IS DISTORTING EXCESSIVELY.
   ELEMENT SPIRAL-1.1895 IS DISTORTING EXCESSIVELY.
   ELEMENT SPIRAL-1.1896 IS DISTORTING EXCESSIVELY.
   ELEMENT SPIRAL-1.1897 IS DISTORTING EXCESSIVELY.
   ELEMENT SPIRAL-1.1901 IS DISTORTING EXCESSIVELY.
   ELEMENT SPIRAL-1.1903 IS DISTORTING EXCESSIVELY.
   ELEMENT SPIRAL-1.1904 IS DISTORTING EXCESSIVELY.
   ELEMENT SPIRAL-1.1906 IS DISTORTING EXCESSIVELY.
   ELEMENT SPIRAL-1.1907 IS DISTORTING EXCESSIVELY.
   ELEMENT SPIRAL-1.1909 IS DISTORTING EXCESSIVELY.
   ELEMENT SPIRAL-1.1912 IS DISTORTING EXCESSIVELY.
   ELEMENT SPIRAL-1.1914 IS DISTORTING EXCESSIVELY.
   ELEMENT SPIRAL-1.1915 IS DISTORTING EXCESSIVELY.
   ELEMENT SPIRAL-1.1917 IS DISTORTING EXCESSIVELY.
   ELEMENT SPIRAL-1.1919 IS DISTORTING EXCESSIVELY.
   ELEMENT SPIRAL-1.1923 IS DISTORTING EXCESSIVELY.
   ELEMENT SPIRAL-1.1924 IS DISTORTING EXCESSIVELY.
   ELEMENT SPIRAL-1.1925 IS DISTORTING EXCESSIVELY.
   ELEMENT SPIRAL-1.1928 IS DISTORTING EXCESSIVELY.
   ELEMENT SPIRAL-1.1929 IS DISTORTING EXCESSIVELY.
   ELEMENT SPIRAL-1.1930 IS DISTORTING EXCESSIVELY.
   ELEMENT SPIRAL-1.1935 IS DISTORTING EXCESSIVELY.
   ELEMENT SPIRAL-1.1937 IS DISTORTING EXCESSIVELY.
   ELEMENT SPIRAL-1.1940 IS DISTORTING EXCESSIVELY.
   ELEMENT SPIRAL-1.1942 IS DISTORTING EXCESSIVELY.
   ELEMENT SPIRAL-1.1944 IS DISTORTING EXCESSIVELY.
   ELEMENT SPIRAL-1.1946 IS DISTORTING EXCESSIVELY.
   ELEMENT SPIRAL-1.1948 IS DISTORTING EXCESSIVELY.
   ELEMENT SPIRAL-1.1950 IS DISTORTING EXCESSIVELY.
   ELEMENT SPIRAL-1.1951 IS DISTORTING EXCESSIVELY.
   ELEMENT SPIRAL-1.1952 IS DISTORTING EXCESSIVELY.
   ELEMENT SPIRAL-1.1954 IS DISTORTING EXCESSIVELY.
   ELEMENT SPIRAL-1.1956 IS DISTORTING EXCESSIVELY.
   ELEMENT SPIRAL-1.1957 IS DISTORTING EXCESSIVELY.
   ELEMENT SPIRAL-1.1958 IS DISTORTING EXCESSIVELY.
   ELEMENT SPIRAL-1.1960 IS DISTORTING EXCESSIVELY.
   ELEMENT SPIRAL-1.1961 IS DISTORTING EXCESSIVELY.
   ELEMENT SPIRAL-1.1962 IS DISTORTING EXCESSIVELY.
   ELEMENT SPIRAL-1.1963 IS DISTORTING EXCESSIVELY.
   ELEMENT SPIRAL-1.1964 IS DISTORTING EXCESSIVELY.
   ELEMENT SPIRAL-1.1966 IS DISTORTING EXCESSIVELY.
   ELEMENT SPIRAL-1.1967 IS DISTORTING EXCESSIVELY.
   ELEMENT SPIRAL-1.1968 IS DISTORTING EXCESSIVELY.
   ELEMENT SPIRAL-1.1971 IS DISTORTING EXCESSIVELY.
   ELEMENT SPIRAL-1.1972 IS DISTORTING EXCESSIVELY.
   ELEMENT SPIRAL-1.1973 IS DISTORTING EXCESSIVELY.
   ELEMENT SPIRAL-1.1975 IS DISTORTING EXCESSIVELY.
   ELEMENT SPIRAL-1.1976 IS DISTORTING EXCESSIVELY.
   ELEMENT SPIRAL-1.1977 IS DISTORTING EXCESSIVELY.
   ELEMENT SPIRAL-1.1978 IS DISTORTING EXCESSIVELY.
   ELEMENT SPIRAL-1.1979 IS DISTORTING EXCESSIVELY.
   ELEMENT SPIRAL-1.1981 IS DISTORTING EXCESSIVELY.
   ELEMENT SPIRAL-1.1982 IS DISTORTING EXCESSIVELY.
   ELEMENT SPIRAL-1.1983 IS DISTORTING EXCESSIVELY.
   ELEMENT SPIRAL-1.1985 IS DISTORTING EXCESSIVELY.
   ELEMENT SPIRAL-1.1987 IS DISTORTING EXCESSIVELY.
   ELEMENT SPIRAL-1.1988 IS DISTORTING EXCESSIVELY.
   ELEMENT SPIRAL-1.1989 IS DISTORTING EXCESSIVELY.
   ELEMENT SPIRAL-1.1990 IS DISTORTING EXCESSIVELY.
   ELEMENT SPIRAL-1.1991 IS DISTORTING EXCESSIVELY.
   ELEMENT SPIRAL-1.1992 IS DISTORTING EXCESSIVELY.
   ELEMENT SPIRAL-1.1993 IS DISTORTING EXCESSIVELY.
   ELEMENT SPIRAL-1.1995 IS DISTORTING EXCESSIVELY.
   ELEMENT SPIRAL-1.1998 IS DISTORTING EXCESSIVELY.
   ELEMENT SPIRAL-1.1999 IS DISTORTING EXCESSIVELY.
   ELEMENT SPIRAL-1.2000 IS DISTORTING EXCESSIVELY.
   ELEMENT SPIRAL-1.2001 IS DISTORTING EXCESSIVELY.
   ELEMENT SPIRAL-1.2005 IS DISTORTING EXCESSIVELY.
   ELEMENT SPIRAL-1.2006 IS DISTORTING EXCESSIVELY.
   ELEMENT SPIRAL-1.2009 IS DISTORTING EXCESSIVELY.
   ELEMENT SPIRAL-1.2011 IS DISTORTING EXCESSIVELY.
   ELEMENT SPIRAL-1.2013 IS DISTORTING EXCESSIVELY.
   ELEMENT SPIRAL-1.2014 IS DISTORTING EXCESSIVELY.
   ELEMENT SPIRAL-1.2015 IS DISTORTING EXCESSIVELY.
   ELEMENT SPIRAL-1.2016 IS DISTORTING EXCESSIVELY.
   ELEMENT SPIRAL-1.2017 IS DISTORTING EXCESSIVELY.
   ELEMENT SPIRAL-1.2018 IS DISTORTING EXCESSIVELY.
   ELEMENT SPIRAL-1.2022 IS DISTORTING EXCESSIVELY.
   ELEMENT SPIRAL-1.2023 IS DISTORTING EXCESSIVELY.
   ELEMENT SPIRAL-1.2024 IS DISTORTING EXCESSIVELY.
   ELEMENT SPIRAL-1.2026 IS DISTORTING EXCESSIVELY.
   ELEMENT SPIRAL-1.2027 IS DISTORTING EXCESSIVELY.
   ELEMENT SPIRAL-1.2029 IS DISTORTING EXCESSIVELY.
   ELEMENT SPIRAL-1.2032 IS DISTORTING EXCESSIVELY.
   ELEMENT SPIRAL-1.2033 IS DISTORTING EXCESSIVELY.
   ELEMENT SPIRAL-1.2035 IS DISTORTING EXCESSIVELY.
   ELEMENT SPIRAL-1.2037 IS DISTORTING EXCESSIVELY.
   ELEMENT SPIRAL-1.2038 IS DISTORTING EXCESSIVELY.
   ELEMENT SPIRAL-1.2042 IS DISTORTING EXCESSIVELY.
   ELEMENT SPIRAL-1.2043 IS DISTORTING EXCESSIVELY.
   ELEMENT SPIRAL-1.2044 IS DISTORTING EXCESSIVELY.
   ELEMENT SPIRAL-1.2046 IS DISTORTING EXCESSIVELY.
   ELEMENT SPIRAL-1.2051 IS DISTORTING EXCESSIVELY.
   ELEMENT SPIRAL-1.2052 IS DISTORTING EXCESSIVELY.
   ELEMENT SPIRAL-1.2054 IS DISTORTING EXCESSIVELY.
   ELEMENT SPIRAL-1.2057 IS DISTORTING EXCESSIVELY.
   ELEMENT SPIRAL-1.2060 IS DISTORTING EXCESSIVELY.
   ELEMENT SPIRAL-1.2061 IS DISTORTING EXCESSIVELY.
   ELEMENT SPIRAL-1.2062 IS DISTORTING EXCESSIVELY.
   ELEMENT SPIRAL-1.2063 IS DISTORTING EXCESSIVELY.
   ELEMENT SPIRAL-1.2064 IS DISTORTING EXCESSIVELY.
   ELEMENT SPIRAL-1.2065 IS DISTORTING EXCESSIVELY.
   ELEMENT SPIRAL-1.2066 IS DISTORTING EXCESSIVELY.
   ELEMENT SPIRAL-1.2067 IS DISTORTING EXCESSIVELY.
   ELEMENT SPIRAL-1.2068 IS DISTORTING EXCESSIVELY.
   ELEMENT SPIRAL-1.2069 IS DISTORTING EXCESSIVELY.
   ELEMENT SPIRAL-1.2074 IS DISTORTING EXCESSIVELY.
   ELEMENT SPIRAL-1.2075 IS DISTORTING EXCESSIVELY.
   ELEMENT SPIRAL-1.2079 IS DISTORTING EXCESSIVELY.
   ELEMENT SPIRAL-1.2080 IS DISTORTING EXCESSIVELY.
   ELEMENT SPIRAL-1.2081 IS DISTORTING EXCESSIVELY.
   ELEMENT SPIRAL-1.2084 IS DISTORTING EXCESSIVELY.
   ELEMENT SPIRAL-1.2085 IS DISTORTING EXCESSIVELY.
   ELEMENT SPIRAL-1.2087 IS DISTORTING EXCESSIVELY.
   ELEMENT SPIRAL-1.2090 IS DISTORTING EXCESSIVELY.
   ELEMENT SPIRAL-1.2091 IS DISTORTING EXCESSIVELY.
   ELEMENT SPIRAL-1.2094 IS DISTORTING EXCESSIVELY.
   ELEMENT SPIRAL-1.2095 IS DISTORTING EXCESSIVELY.
   ELEMENT SPIRAL-1.2097 IS DISTORTING EXCESSIVELY.
   ELEMENT SPIRAL-1.2100 IS DISTORTING EXCESSIVELY.
   ELEMENT SPIRAL-1.2101 IS DISTORTING EXCESSIVELY.
   ELEMENT SPIRAL-1.2102 IS DISTORTING EXCESSIVELY.
   ELEMENT SPIRAL-1.2103 IS DISTORTING EXCESSIVELY.
   ELEMENT SPIRAL-1.2106 IS DISTORTING EXCESSIVELY.
   ELEMENT SPIRAL-1.2108 IS DISTORTING EXCESSIVELY.
   ELEMENT SPIRAL-1.2110 IS DISTORTING EXCESSIVELY.
   ELEMENT SPIRAL-1.2115 IS DISTORTING EXCESSIVELY.
   ELEMENT SPIRAL-1.2116 IS DISTORTING EXCESSIVELY.
   ELEMENT SPIRAL-1.2118 IS DISTORTING EXCESSIVELY.
   ELEMENT SPIRAL-1.2122 IS DISTORTING EXCESSIVELY.
   ELEMENT SPIRAL-1.2123 IS DISTORTING EXCESSIVELY.
   ELEMENT SPIRAL-1.2129 IS DISTORTING EXCESSIVELY.
   ELEMENT SPIRAL-1.2131 IS DISTORTING EXCESSIVELY.
   ELEMENT SPIRAL-1.2134 IS DISTORTING EXCESSIVELY.
   ELEMENT SPIRAL-1.2135 IS DISTORTING EXCESSIVELY.
   ELEMENT SPIRAL-1.2138 IS DISTORTING EXCESSIVELY.
   ELEMENT SPIRAL-1.2139 IS DISTORTING EXCESSIVELY.
   ELEMENT SPIRAL-1.2141 IS DISTORTING EXCESSIVELY.
   ELEMENT SPIRAL-1.2143 IS DISTORTING EXCESSIVELY.
   ELEMENT SPIRAL-1.2145 IS DISTORTING EXCESSIVELY.
   ELEMENT SPIRAL-1.2148 IS DISTORTING EXCESSIVELY.
   ELEMENT SPIRAL-1.2149 IS DISTORTING EXCESSIVELY.
   ELEMENT SPIRAL-1.2150 IS DISTORTING EXCESSIVELY.
   ELEMENT SPIRAL-1.2151 IS DISTORTING EXCESSIVELY.
   ELEMENT SPIRAL-1.2153 IS DISTORTING EXCESSIVELY.
   ELEMENT SPIRAL-1.2154 IS DISTORTING EXCESSIVELY.
   ELEMENT SPIRAL-1.2155 IS DISTORTING EXCESSIVELY.
   ELEMENT SPIRAL-1.2156 IS DISTORTING EXCESSIVELY.
   ELEMENT SPIRAL-1.2159 IS DISTORTING EXCESSIVELY.
   ELEMENT SPIRAL-1.2160 IS DISTORTING EXCESSIVELY.
   ELEMENT SPIRAL-1.2161 IS DISTORTING EXCESSIVELY.
   ELEMENT SPIRAL-1.2163 IS DISTORTING EXCESSIVELY.
   ELEMENT SPIRAL-1.2164 IS DISTORTING EXCESSIVELY.
   ELEMENT SPIRAL-1.2166 IS DISTORTING EXCESSIVELY.
   ELEMENT SPIRAL-1.2167 IS DISTORTING EXCESSIVELY.
   ELEMENT SPIRAL-1.2168 IS DISTORTING EXCESSIVELY.
   ELEMENT SPIRAL-1.2170 IS DISTORTING EXCESSIVELY.
   ELEMENT SPIRAL-1.2172 IS DISTORTING EXCESSIVELY.
   ELEMENT SPIRAL-1.2173 IS DISTORTING EXCESSIVELY.
   ELEMENT SPIRAL-1.2174 IS DISTORTING EXCESSIVELY.
   ELEMENT SPIRAL-1.2175 IS DISTORTING EXCESSIVELY.
   ELEMENT SPIRAL-1.2178 IS DISTORTING EXCESSIVELY.
   ELEMENT SPIRAL-1.2179 IS DISTORTING EXCESSIVELY.
   ELEMENT SPIRAL-1.2180 IS DISTORTING EXCESSIVELY.
   ELEMENT SPIRAL-1.2181 IS DISTORTING EXCESSIVELY.
   ELEMENT SPIRAL-1.2182 IS DISTORTING EXCESSIVELY.
   ELEMENT SPIRAL-1.2185 IS DISTORTING EXCESSIVELY.
   ELEMENT SPIRAL-1.2186 IS DISTORTING EXCESSIVELY.
   ELEMENT SPIRAL-1.2187 IS DISTORTING EXCESSIVELY.
   ELEMENT SPIRAL-1.2188 IS DISTORTING EXCESSIVELY.
   ELEMENT SPIRAL-1.2189 IS DISTORTING EXCESSIVELY.
   ELEMENT SPIRAL-1.2190 IS DISTORTING EXCESSIVELY.
   ELEMENT SPIRAL-1.2192 IS DISTORTING EXCESSIVELY.
   ELEMENT SPIRAL-1.2197 IS DISTORTING EXCESSIVELY.
   ELEMENT SPIRAL-1.2198 IS DISTORTING EXCESSIVELY.
   ELEMENT SPIRAL-1.2199 IS DISTORTING EXCESSIVELY.
   ELEMENT SPIRAL-1.2200 IS DISTORTING EXCESSIVELY.
   ELEMENT SPIRAL-1.2202 IS DISTORTING EXCESSIVELY.
   ELEMENT SPIRAL-1.2203 IS DISTORTING EXCESSIVELY.
   ELEMENT SPIRAL-1.2204 IS DISTORTING EXCESSIVELY.
   ELEMENT SPIRAL-1.2205 IS DISTORTING EXCESSIVELY.
   ELEMENT SPIRAL-1.2209 IS DISTORTING EXCESSIVELY.
   ELEMENT SPIRAL-1.2210 IS DISTORTING EXCESSIVELY.
   ELEMENT SPIRAL-1.2211 IS DISTORTING EXCESSIVELY.
   ELEMENT SPIRAL-1.2213 IS DISTORTING EXCESSIVELY.
   ELEMENT SPIRAL-1.2217 IS DISTORTING EXCESSIVELY.
   ELEMENT SPIRAL-1.2218 IS DISTORTING EXCESSIVELY.
   ELEMENT SPIRAL-1.2219 IS DISTORTING EXCESSIVELY.
   ELEMENT SPIRAL-1.2221 IS DISTORTING EXCESSIVELY.
   ELEMENT SPIRAL-1.2222 IS DISTORTING EXCESSIVELY.
   ELEMENT SPIRAL-1.2223 IS DISTORTING EXCESSIVELY.
   ELEMENT SPIRAL-1.2224 IS DISTORTING EXCESSIVELY.
   ELEMENT SPIRAL-1.2225 IS DISTORTING EXCESSIVELY.
   ELEMENT SPIRAL-1.2226 IS DISTORTING EXCESSIVELY.
   ELEMENT SPIRAL-1.2227 IS DISTORTING EXCESSIVELY.
   ELEMENT SPIRAL-1.2229 IS DISTORTING EXCESSIVELY.
   ELEMENT SPIRAL-1.2231 IS DISTORTING EXCESSIVELY.
   ELEMENT SPIRAL-1.2238 IS DISTORTING EXCESSIVELY.
   ELEMENT SPIRAL-1.2240 IS DISTORTING EXCESSIVELY.
   ELEMENT SPIRAL-1.2243 IS DISTORTING EXCESSIVELY.
   ELEMENT SPIRAL-1.2245 IS DISTORTING EXCESSIVELY.
   ELEMENT SPIRAL-1.2246 IS DISTORTING EXCESSIVELY.
   ELEMENT SPIRAL-1.2247 IS DISTORTING EXCESSIVELY.
   ELEMENT SPIRAL-1.2250 IS DISTORTING EXCESSIVELY.
   ELEMENT SPIRAL-1.2252 IS DISTORTING EXCESSIVELY.
   ELEMENT SPIRAL-1.2253 IS DISTORTING EXCESSIVELY.
   ELEMENT SPIRAL-1.2254 IS DISTORTING EXCESSIVELY.
   ELEMENT SPIRAL-1.2256 IS DISTORTING EXCESSIVELY.
   ELEMENT SPIRAL-1.2258 IS DISTORTING EXCESSIVELY.
   ELEMENT SPIRAL-1.2261 IS DISTORTING EXCESSIVELY.
   ELEMENT SPIRAL-1.2262 IS DISTORTING EXCESSIVELY.
   ELEMENT SPIRAL-1.2264 IS DISTORTING EXCESSIVELY.
   ELEMENT SPIRAL-1.2265 IS DISTORTING EXCESSIVELY.
   ELEMENT SPIRAL-1.2266 IS DISTORTING EXCESSIVELY.
   ELEMENT SPIRAL-1.2267 IS DISTORTING EXCESSIVELY.
   ELEMENT SPIRAL-1.2270 IS DISTORTING EXCESSIVELY.
   ELEMENT SPIRAL-1.2272 IS DISTORTING EXCESSIVELY.
   ELEMENT SPIRAL-1.2273 IS DISTORTING EXCESSIVELY.
   ELEMENT SPIRAL-1.2274 IS DISTORTING EXCESSIVELY.
   ELEMENT SPIRAL-1.2275 IS DISTORTING EXCESSIVELY.
   ELEMENT SPIRAL-1.2276 IS DISTORTING EXCESSIVELY.
   ELEMENT SPIRAL-1.2279 IS DISTORTING EXCESSIVELY.
   ELEMENT SPIRAL-1.2280 IS DISTORTING EXCESSIVELY.
   ELEMENT SPIRAL-1.2283 IS DISTORTING EXCESSIVELY.
   ELEMENT SPIRAL-1.2285 IS DISTORTING EXCESSIVELY.
   ELEMENT SPIRAL-1.2287 IS DISTORTING EXCESSIVELY.
   ELEMENT SPIRAL-1.2288 IS DISTORTING EXCESSIVELY.
   ELEMENT SPIRAL-1.2289 IS DISTORTING EXCESSIVELY.
   ELEMENT SPIRAL-1.2290 IS DISTORTING EXCESSIVELY.
   ELEMENT SPIRAL-1.2291 IS DISTORTING EXCESSIVELY.
   ELEMENT SPIRAL-1.2292 IS DISTORTING EXCESSIVELY.
   ELEMENT SPIRAL-1.2293 IS DISTORTING EXCESSIVELY.
   ELEMENT SPIRAL-1.2296 IS DISTORTING EXCESSIVELY.
   ELEMENT SPIRAL-1.2297 IS DISTORTING EXCESSIVELY.
   ELEMENT SPIRAL-1.2298 IS DISTORTING EXCESSIVELY.
   ELEMENT SPIRAL-1.2299 IS DISTORTING EXCESSIVELY.
   ELEMENT SPIRAL-1.2301 IS DISTORTING EXCESSIVELY.
   ELEMENT SPIRAL-1.2302 IS DISTORTING EXCESSIVELY.
   ELEMENT SPIRAL-1.2303 IS DISTORTING EXCESSIVELY.
   ELEMENT SPIRAL-1.2305 IS DISTORTING EXCESSIVELY.
   ELEMENT SPIRAL-1.2306 IS DISTORTING EXCESSIVELY.
   ELEMENT SPIRAL-1.2307 IS DISTORTING EXCESSIVELY.
   ELEMENT SPIRAL-1.2308 IS DISTORTING EXCESSIVELY.
   ELEMENT SPIRAL-1.2314 IS DISTORTING EXCESSIVELY.
   ELEMENT SPIRAL-1.2315 IS DISTORTING EXCESSIVELY.
   ELEMENT SPIRAL-1.2316 IS DISTORTING EXCESSIVELY.
   ELEMENT SPIRAL-1.2322 IS DISTORTING EXCESSIVELY.
   ELEMENT SPIRAL-1.2325 IS DISTORTING EXCESSIVELY.
   ELEMENT SPIRAL-1.2326 IS DISTORTING EXCESSIVELY.
   ELEMENT SPIRAL-1.2327 IS DISTORTING EXCESSIVELY.
   ELEMENT SPIRAL-1.2329 IS DISTORTING EXCESSIVELY.
   ELEMENT SPIRAL-1.2330 IS DISTORTING EXCESSIVELY.
   ELEMENT SPIRAL-1.2331 IS DISTORTING EXCESSIVELY.
   ELEMENT SPIRAL-1.2332 IS DISTORTING EXCESSIVELY.
   ELEMENT SPIRAL-1.2333 IS DISTORTING EXCESSIVELY.
   ELEMENT SPIRAL-1.2334 IS DISTORTING EXCESSIVELY.
   ELEMENT SPIRAL-1.2336 IS DISTORTING EXCESSIVELY.
   ELEMENT SPIRAL-1.2337 IS DISTORTING EXCESSIVELY.
   ELEMENT SPIRAL-1.2338 IS DISTORTING EXCESSIVELY.
   ELEMENT SPIRAL-1.2339 IS DISTORTING EXCESSIVELY.
   ELEMENT SPIRAL-1.2340 IS DISTORTING EXCESSIVELY.
   ELEMENT SPIRAL-1.2342 IS DISTORTING EXCESSIVELY.
   ELEMENT SPIRAL-1.2343 IS DISTORTING EXCESSIVELY.
   ELEMENT SPIRAL-1.2344 IS DISTORTING EXCESSIVELY.
   ELEMENT SPIRAL-1.2345 IS DISTORTING EXCESSIVELY.
   ELEMENT SPIRAL-1.2347 IS DISTORTING EXCESSIVELY.
   ELEMENT SPIRAL-1.2348 IS DISTORTING EXCESSIVELY.
   ELEMENT SPIRAL-1.2352 IS DISTORTING EXCESSIVELY.
   ELEMENT SPIRAL-1.2353 IS DISTORTING EXCESSIVELY.
   ELEMENT SPIRAL-1.2354 IS DISTORTING EXCESSIVELY.
   ELEMENT SPIRAL-1.2355 IS DISTORTING EXCESSIVELY.
   ELEMENT SPIRAL-1.2357 IS DISTORTING EXCESSIVELY.
   ELEMENT SPIRAL-1.2359 IS DISTORTING EXCESSIVELY.
   ELEMENT SPIRAL-1.2361 IS DISTORTING EXCESSIVELY.
   ELEMENT SPIRAL-1.2362 IS DISTORTING EXCESSIVELY.
   ELEMENT SPIRAL-1.2365 IS DISTORTING EXCESSIVELY.
   ELEMENT SPIRAL-1.2366 IS DISTORTING EXCESSIVELY.
   ELEMENT SPIRAL-1.2367 IS DISTORTING EXCESSIVELY.
   ELEMENT SPIRAL-1.2369 IS DISTORTING EXCESSIVELY.
   ELEMENT SPIRAL-1.2373 IS DISTORTING EXCESSIVELY.
   ELEMENT SPIRAL-1.2374 IS DISTORTING EXCESSIVELY.
   ELEMENT SPIRAL-1.2376 IS DISTORTING EXCESSIVELY.
   ELEMENT SPIRAL-1.2381 IS DISTORTING EXCESSIVELY.
   ELEMENT SPIRAL-1.2382 IS DISTORTING EXCESSIVELY.
   ELEMENT SPIRAL-1.2384 IS DISTORTING EXCESSIVELY.
   ELEMENT SPIRAL-1.2386 IS DISTORTING EXCESSIVELY.
   ELEMENT SPIRAL-1.2388 IS DISTORTING EXCESSIVELY.
   ELEMENT SPIRAL-1.2391 IS DISTORTING EXCESSIVELY.
   ELEMENT SPIRAL-1.2392 IS DISTORTING EXCESSIVELY.
   ELEMENT SPIRAL-1.2393 IS DISTORTING EXCESSIVELY.
   ELEMENT SPIRAL-1.2394 IS DISTORTING EXCESSIVELY.
   ELEMENT SPIRAL-1.2396 IS DISTORTING EXCESSIVELY.
   ELEMENT SPIRAL-1.2398 IS DISTORTING EXCESSIVELY.
   ELEMENT SPIRAL-1.2399 IS DISTORTING EXCESSIVELY.
   ELEMENT SPIRAL-1.2401 IS DISTORTING EXCESSIVELY.
   ELEMENT SPIRAL-1.2402 IS DISTORTING EXCESSIVELY.
   ELEMENT SPIRAL-1.2405 IS DISTORTING EXCESSIVELY.
   ELEMENT SPIRAL-1.2406 IS DISTORTING EXCESSIVELY.
   ELEMENT SPIRAL-1.2410 IS DISTORTING EXCESSIVELY.
   ELEMENT SPIRAL-1.2411 IS DISTORTING EXCESSIVELY.
   ELEMENT SPIRAL-1.2413 IS DISTORTING EXCESSIVELY.
   ELEMENT SPIRAL-1.2414 IS DISTORTING EXCESSIVELY.
   ELEMENT SPIRAL-1.2416 IS DISTORTING EXCESSIVELY.
   ELEMENT SPIRAL-1.2419 IS DISTORTING EXCESSIVELY.
   ELEMENT SPIRAL-1.2420 IS DISTORTING EXCESSIVELY.
   ELEMENT SPIRAL-1.2423 IS DISTORTING EXCESSIVELY.
   ELEMENT SPIRAL-1.2424 IS DISTORTING EXCESSIVELY.
   ELEMENT SPIRAL-1.2425 IS DISTORTING EXCESSIVELY.
   ELEMENT SPIRAL-1.2426 IS DISTORTING EXCESSIVELY.
   ELEMENT SPIRAL-1.2427 IS DISTORTING EXCESSIVELY.
   ELEMENT SPIRAL-1.2429 IS DISTORTING EXCESSIVELY.
   ELEMENT SPIRAL-1.2430 IS DISTORTING EXCESSIVELY.
   ELEMENT SPIRAL-1.2431 IS DISTORTING EXCESSIVELY.
   ELEMENT SPIRAL-1.2432 IS DISTORTING EXCESSIVELY.
   ELEMENT SPIRAL-1.2433 IS DISTORTING EXCESSIVELY.
   ELEMENT SPIRAL-1.2437 IS DISTORTING EXCESSIVELY.
   ELEMENT SPIRAL-1.2438 IS DISTORTING EXCESSIVELY.
   ELEMENT SPIRAL-1.2439 IS DISTORTING EXCESSIVELY.
   ELEMENT SPIRAL-1.2441 IS DISTORTING EXCESSIVELY.
   ELEMENT SPIRAL-1.2442 IS DISTORTING EXCESSIVELY.
   ELEMENT SPIRAL-1.2444 IS DISTORTING EXCESSIVELY.
   ELEMENT SPIRAL-1.2445 IS DISTORTING EXCESSIVELY.
   ELEMENT SPIRAL-1.2446 IS DISTORTING EXCESSIVELY.
   ELEMENT SPIRAL-1.2448 IS DISTORTING EXCESSIVELY.
   ELEMENT SPIRAL-1.2450 IS DISTORTING EXCESSIVELY.
   ELEMENT SPIRAL-1.2451 IS DISTORTING EXCESSIVELY.
   ELEMENT SPIRAL-1.2452 IS DISTORTING EXCESSIVELY.
   ELEMENT SPIRAL-1.2453 IS DISTORTING EXCESSIVELY.
   ELEMENT SPIRAL-1.2455 IS DISTORTING EXCESSIVELY.
   ELEMENT SPIRAL-1.2456 IS DISTORTING EXCESSIVELY.
   ELEMENT SPIRAL-1.2457 IS DISTORTING EXCESSIVELY.
   ELEMENT SPIRAL-1.2459 IS DISTORTING EXCESSIVELY.
   ELEMENT SPIRAL-1.2460 IS DISTORTING EXCESSIVELY.
   ELEMENT SPIRAL-1.2461 IS DISTORTING EXCESSIVELY.
   ELEMENT SPIRAL-1.2463 IS DISTORTING EXCESSIVELY.
   ELEMENT SPIRAL-1.2464 IS DISTORTING EXCESSIVELY.
   ELEMENT SPIRAL-1.2465 IS DISTORTING EXCESSIVELY.
   ELEMENT SPIRAL-1.2467 IS DISTORTING EXCESSIVELY.
   ELEMENT SPIRAL-1.2468 IS DISTORTING EXCESSIVELY.
   ELEMENT SPIRAL-1.2470 IS DISTORTING EXCESSIVELY.
   ELEMENT SPIRAL-1.2478 IS DISTORTING EXCESSIVELY.
   ELEMENT SPIRAL-1.2483 IS DISTORTING EXCESSIVELY.
   ELEMENT SPIRAL-1.2484 IS DISTORTING EXCESSIVELY.
   ELEMENT SPIRAL-1.2485 IS DISTORTING EXCESSIVELY.
   ELEMENT SPIRAL-1.2487 IS DISTORTING EXCESSIVELY.
   ELEMENT SPIRAL-1.2488 IS DISTORTING EXCESSIVELY.
   ELEMENT SPIRAL-1.2490 IS DISTORTING EXCESSIVELY.
   ELEMENT SPIRAL-1.2492 IS DISTORTING EXCESSIVELY.
   ELEMENT SPIRAL-1.2495 IS DISTORTING EXCESSIVELY.
   ELEMENT SPIRAL-1.2497 IS DISTORTING EXCESSIVELY.
   ELEMENT SPIRAL-1.2498 IS DISTORTING EXCESSIVELY.
   ELEMENT SPIRAL-1.2499 IS DISTORTING EXCESSIVELY.
   ELEMENT SPIRAL-1.2501 IS DISTORTING EXCESSIVELY.
   ELEMENT SPIRAL-1.2503 IS DISTORTING EXCESSIVELY.
   ELEMENT SPIRAL-1.2504 IS DISTORTING EXCESSIVELY.
   ELEMENT SPIRAL-1.2505 IS DISTORTING EXCESSIVELY.
   ELEMENT SPIRAL-1.2507 IS DISTORTING EXCESSIVELY.
   ELEMENT SPIRAL-1.2509 IS DISTORTING EXCESSIVELY.
   ELEMENT SPIRAL-1.2511 IS DISTORTING EXCESSIVELY.
   ELEMENT SPIRAL-1.2513 IS DISTORTING EXCESSIVELY.
   ELEMENT SPIRAL-1.2516 IS DISTORTING EXCESSIVELY.
   ELEMENT SPIRAL-1.2517 IS DISTORTING EXCESSIVELY.
   ELEMENT SPIRAL-1.2518 IS DISTORTING EXCESSIVELY.
   ELEMENT SPIRAL-1.2519 IS DISTORTING EXCESSIVELY.
   ELEMENT SPIRAL-1.2521 IS DISTORTING EXCESSIVELY.
   ELEMENT SPIRAL-1.2522 IS DISTORTING EXCESSIVELY.
   ELEMENT SPIRAL-1.2524 IS DISTORTING EXCESSIVELY.
   ELEMENT SPIRAL-1.2525 IS DISTORTING EXCESSIVELY.
   ELEMENT SPIRAL-1.2528 IS DISTORTING EXCESSIVELY.
   ELEMENT SPIRAL-1.2531 IS DISTORTING EXCESSIVELY.
   ELEMENT SPIRAL-1.2534 IS DISTORTING EXCESSIVELY.
   ELEMENT SPIRAL-1.2535 IS DISTORTING EXCESSIVELY.
   ELEMENT SPIRAL-1.2537 IS DISTORTING EXCESSIVELY.
   ELEMENT SPIRAL-1.2538 IS DISTORTING EXCESSIVELY.
   ELEMENT SPIRAL-1.2539 IS DISTORTING EXCESSIVELY.
   ELEMENT SPIRAL-1.2540 IS DISTORTING EXCESSIVELY.
   ELEMENT SPIRAL-1.2541 IS DISTORTING EXCESSIVELY.
   ELEMENT SPIRAL-1.2543 IS DISTORTING EXCESSIVELY.
   ELEMENT SPIRAL-1.2544 IS DISTORTING EXCESSIVELY.
   ELEMENT SPIRAL-1.2546 IS DISTORTING EXCESSIVELY.
   ELEMENT SPIRAL-1.2549 IS DISTORTING EXCESSIVELY.
   ELEMENT SPIRAL-1.2550 IS DISTORTING EXCESSIVELY.
   ELEMENT SPIRAL-1.2551 IS DISTORTING EXCESSIVELY.
   ELEMENT SPIRAL-1.2553 IS DISTORTING EXCESSIVELY.
   ELEMENT SPIRAL-1.2556 IS DISTORTING EXCESSIVELY.
   ELEMENT SPIRAL-1.2557 IS DISTORTING EXCESSIVELY.
   ELEMENT SPIRAL-1.2558 IS DISTORTING EXCESSIVELY.
   ELEMENT SPIRAL-1.2560 IS DISTORTING EXCESSIVELY.
   ELEMENT SPIRAL-1.2562 IS DISTORTING EXCESSIVELY.
   ELEMENT SPIRAL-1.2563 IS DISTORTING EXCESSIVELY.
   ELEMENT SPIRAL-1.2564 IS DISTORTING EXCESSIVELY.
   ELEMENT SPIRAL-1.2565 IS DISTORTING EXCESSIVELY.
   ELEMENT SPIRAL-1.2567 IS DISTORTING EXCESSIVELY.
   ELEMENT SPIRAL-1.2568 IS DISTORTING EXCESSIVELY.
   ELEMENT SPIRAL-1.2569 IS DISTORTING EXCESSIVELY.
   ELEMENT SPIRAL-1.2570 IS DISTORTING EXCESSIVELY.
   ELEMENT SPIRAL-1.2574 IS DISTORTING EXCESSIVELY.
   ELEMENT SPIRAL-1.2576 IS DISTORTING EXCESSIVELY.
   ELEMENT SPIRAL-1.2578 IS DISTORTING EXCESSIVELY.
   ELEMENT SPIRAL-1.2580 IS DISTORTING EXCESSIVELY.
   ELEMENT SPIRAL-1.2581 IS DISTORTING EXCESSIVELY.
   ELEMENT SPIRAL-1.2584 IS DISTORTING EXCESSIVELY.
   ELEMENT SPIRAL-1.2588 IS DISTORTING EXCESSIVELY.
   ELEMENT SPIRAL-1.2591 IS DISTORTING EXCESSIVELY.
   ELEMENT SPIRAL-1.2593 IS DISTORTING EXCESSIVELY.
[...]
          FORCE     EQUILIBRIUM NOT ACHIEVED WITHIN TOLERANCE.
 
	SYMMETRIC PURE THREAD-BASED DIRECT SPARSE SOLVER RUNNING ON
 	1 HOST x 1 MPI RANK PER HOST x 1 THREAD PER RANK
        NUMBER OF EQUATIONS:  90774
        NUMBER OF RHS:        1
        NUMBER OF FLOPS:      6.037e+09
        SOLVER ELAPSED TIME:  501ms

               CONVERGENCE CHECKS FOR EQUILIBRIUM ITERATION     4


 AVERAGE FORCE                      8.506E-03   TIME AVG. FORCE       2.689E-03
 LARGEST SCALED RESIDUAL FORCE     -2.116E-03   AT NODE      17271   DOF  3
   INSTANCE: SPIRAL-1                                                                        
  CORRESPONDING RESIDUAL FORCE     -2.116E-03
 LARGEST INCREMENT OF DISP.        -3.893E-03   AT NODE        170   DOF  2
   INSTANCE: SPIRAL-1                                                                        
 LARGEST CORRECTION TO DISP.       -2.142E-05   AT NODE        170   DOF  2
   INSTANCE: SPIRAL-1                                                                        
          FORCE     EQUILIBRIUM NOT ACHIEVED WITHIN TOLERANCE.
 
	SYMMETRIC PURE THREAD-BASED DIRECT SPARSE SOLVER RUNNING ON
 	1 HOST x 1 MPI RANK PER HOST x 1 THREAD PER RANK
        NUMBER OF EQUATIONS:  90774
        NUMBER OF RHS:        1
        NUMBER OF FLOPS:      6.037e+09
        SOLVER ELAPSED TIME:  517ms

               CONVERGENCE CHECKS FOR EQUILIBRIUM ITERATION     5


 AVERAGE FORCE                      8.508E-03   TIME AVG. FORCE       2.689E-03
 LARGEST SCALED RESIDUAL FORCE     -1.643E-03   AT NODE      17271   DOF  3
   INSTANCE: SPIRAL-1                                                                        
  CORRESPONDING RESIDUAL FORCE     -1.643E-03
 LARGEST INCREMENT OF DISP.        -3.912E-03   AT NODE        170   DOF  2
   INSTANCE: SPIRAL-1                                                                        
 LARGEST CORRECTION TO DISP.       -1.896E-05   AT NODE        170   DOF  2
   INSTANCE: SPIRAL-1                                                                        
          FORCE     EQUILIBRIUM NOT ACHIEVED WITHIN TOLERANCE.
 
	SYMMETRIC PURE THREAD-BASED DIRECT SPARSE SOLVER RUNNING ON
 	1 HOST x 1 MPI RANK PER HOST x 1 THREAD PER RANK
        NUMBER OF EQUATIONS:  90774
        NUMBER OF RHS:        1
        NUMBER OF FLOPS:      6.037e+09
        SOLVER ELAPSED TIME:  491ms

               CONVERGENCE CHECKS FOR EQUILIBRIUM ITERATION     6


 AVERAGE FORCE                      8.510E-03   TIME AVG. FORCE       2.689E-03
 LARGEST SCALED RESIDUAL FORCE     -1.658E-03   AT NODE      17271   DOF  3
   INSTANCE: SPIRAL-1                                                                        
  CORRESPONDING RESIDUAL FORCE     -1.658E-03
 LARGEST INCREMENT OF DISP.        -3.931E-03   AT NODE        170   DOF  2
   INSTANCE: SPIRAL-1                                                                        
 LARGEST CORRECTION TO DISP.       -1.904E-05   AT NODE        170   DOF  2
   INSTANCE: SPIRAL-1                                                                        
          FORCE     EQUILIBRIUM NOT ACHIEVED WITHIN TOLERANCE.
 
	SYMMETRIC PURE THREAD-BASED DIRECT SPARSE SOLVER RUNNING ON
 	1 HOST x 1 MPI RANK PER HOST x 1 THREAD PER RANK
        NUMBER OF EQUATIONS:  90774
        NUMBER OF RHS:        1
        NUMBER OF FLOPS:      6.037e+09
        SOLVER ELAPSED TIME:  506ms

               CONVERGENCE CHECKS FOR EQUILIBRIUM ITERATION     7


 AVERAGE FORCE                      8.511E-03   TIME AVG. FORCE       2.689E-03
 LARGEST SCALED RESIDUAL FORCE     -1.012E-03   AT NODE      17271   DOF  3
   INSTANCE: SPIRAL-1                                                                        
  CORRESPONDING RESIDUAL FORCE     -1.012E-03
 LARGEST INCREMENT OF DISP.        -3.946E-03   AT NODE        170   DOF  2
   INSTANCE: SPIRAL-1                                                                        
 LARGEST CORRECTION TO DISP.       -1.488E-05   AT NODE        170   DOF  2
   INSTANCE: SPIRAL-1                                                                        
          FORCE     EQUILIBRIUM NOT ACHIEVED WITHIN TOLERANCE.
 
	SYMMETRIC PURE THREAD-BASED DIRECT SPARSE SOLVER RUNNING ON
 	1 HOST x 1 MPI RANK PER HOST x 1 THREAD PER RANK
        NUMBER OF EQUATIONS:  90774
        NUMBER OF RHS:        1
        NUMBER OF FLOPS:      6.037e+09
        SOLVER ELAPSED TIME:  481ms

               CONVERGENCE CHECKS FOR EQUILIBRIUM ITERATION     8


 AVERAGE FORCE                      8.513E-03   TIME AVG. FORCE       2.689E-03
 LARGEST SCALED RESIDUAL FORCE     -1.318E-03   AT NODE      17271   DOF  3
   INSTANCE: SPIRAL-1                                                                        
  CORRESPONDING RESIDUAL FORCE     -1.318E-03
 LARGEST INCREMENT OF DISP.        -3.963E-03   AT NODE        170   DOF  2
   INSTANCE: SPIRAL-1                                                                        
 LARGEST CORRECTION TO DISP.       -1.696E-05   AT NODE        170   DOF  2
   INSTANCE: SPIRAL-1                                                                        
          FORCE     EQUILIBRIUM NOT ACHIEVED WITHIN TOLERANCE.
 
	SYMMETRIC PURE THREAD-BASED DIRECT SPARSE SOLVER RUNNING ON
 	1 HOST x 1 MPI RANK PER HOST x 1 THREAD PER RANK
        NUMBER OF EQUATIONS:  90774
        NUMBER OF RHS:        1
        NUMBER OF FLOPS:      6.037e+09
        SOLVER ELAPSED TIME:  482ms

               CONVERGENCE CHECKS FOR EQUILIBRIUM ITERATION     9


 AVERAGE FORCE                      8.514E-03   TIME AVG. FORCE       2.689E-03
 LARGEST SCALED RESIDUAL FORCE     -4.337E-04   AT NODE      17271   DOF  3
   INSTANCE: SPIRAL-1                                                                        
  CORRESPONDING RESIDUAL FORCE     -4.337E-04
 LARGEST INCREMENT OF DISP.        -3.973E-03   AT NODE        170   DOF  2
   INSTANCE: SPIRAL-1                                                                        
 LARGEST CORRECTION TO DISP.       -9.756E-06   AT NODE        170   DOF  2
   INSTANCE: SPIRAL-1                                                                        
          FORCE     EQUILIBRIUM NOT ACHIEVED WITHIN TOLERANCE.
 
	SYMMETRIC PURE THREAD-BASED DIRECT SPARSE SOLVER RUNNING ON
 	1 HOST x 1 MPI RANK PER HOST x 1 THREAD PER RANK
        NUMBER OF EQUATIONS:  90774
        NUMBER OF RHS:        1
        NUMBER OF FLOPS:      6.037e+09
        SOLVER ELAPSED TIME:  488ms

               CONVERGENCE CHECKS FOR EQUILIBRIUM ITERATION    10


 AVERAGE FORCE                      8.516E-03   TIME AVG. FORCE       2.689E-03
 LARGEST SCALED RESIDUAL FORCE     -9.868E-04   AT NODE      17271   DOF  3
   INSTANCE: SPIRAL-1                                                                        
  CORRESPONDING RESIDUAL FORCE     -9.868E-04
 LARGEST INCREMENT OF DISP.        -3.988E-03   AT NODE        170   DOF  2
   INSTANCE: SPIRAL-1                                                                        
 LARGEST CORRECTION TO DISP.       -1.465E-05   AT NODE        170   DOF  2
   INSTANCE: SPIRAL-1                                                                        
          FORCE     EQUILIBRIUM NOT ACHIEVED WITHIN TOLERANCE.
 

 ***NOTE: THE RATE OF CONVERGENCE IS VERY SLOW. CONVERGENCE IS JUDGED UNLIKELY.


  INCREMENT    58 STARTS. ATTEMPT NUMBER  2, TIME INCREMENT  4.634E-02
 
	SYMMETRIC PURE THREAD-BASED DIRECT SPARSE SOLVER RUNNING ON
 	1 HOST x 1 MPI RANK PER HOST x 1 THREAD PER RANK
        NUMBER OF EQUATIONS:  90774
        NUMBER OF RHS:        1
        NUMBER OF FLOPS:      6.037e+09
        SOLVER ELAPSED TIME:  493ms

               CONVERGENCE CHECKS FOR EQUILIBRIUM ITERATION     1


 AVERAGE FORCE                      8.756E-03   TIME AVG. FORCE       2.693E-03
 LARGEST SCALED RESIDUAL FORCE      0.152       AT NODE      17271   DOF  3
   INSTANCE: SPIRAL-1                                                                        
  CORRESPONDING RESIDUAL FORCE      0.152    
 LARGEST INCREMENT OF DISP.        -1.996E-03   AT NODE        170   DOF  2
   INSTANCE: SPIRAL-1                                                                        
 LARGEST CORRECTION TO DISP.        1.489E-04   AT NODE        166   DOF  2
   INSTANCE: SPIRAL-1                                                                        
          FORCE     EQUILIBRIUM NOT ACHIEVED WITHIN TOLERANCE.
 
	SYMMETRIC PURE THREAD-BASED DIRECT SPARSE SOLVER RUNNING ON
 	1 HOST x 1 MPI RANK PER HOST x 1 THREAD PER RANK
        NUMBER OF EQUATIONS:  90774
        NUMBER OF RHS:        1
        NUMBER OF FLOPS:      6.037e+09
        SOLVER ELAPSED TIME:  481ms
 

 ***WARNING: THE SYSTEM MATRIX HAS 1 NEGATIVE EIGENVALUES.
             EXPLANATIONS ARE SUGGESTED AFTER THE FIRST OCCURRENCE OF THIS MESSAGE.

               CONVERGENCE CHECKS FOR EQUILIBRIUM ITERATION     2


 AVERAGE FORCE                      8.236E-03   TIME AVG. FORCE       2.684E-03
 LARGEST SCALED RESIDUAL FORCE     -8.791E-04   AT NODE       8665   DOF  3
   INSTANCE: SPIRAL-1                                                                        
  CORRESPONDING RESIDUAL FORCE     -8.791E-04
 LARGEST INCREMENT OF DISP.        -1.996E-03   AT NODE        170   DOF  2
   INSTANCE: SPIRAL-1                                                                        
 LARGEST CORRECTION TO DISP.       -4.014E-07   AT NODE        166   DOF  3
   INSTANCE: SPIRAL-1                                                                        
          FORCE     EQUILIBRIUM NOT ACHIEVED WITHIN TOLERANCE.
 
	SYMMETRIC PURE THREAD-BASED DIRECT SPARSE SOLVER RUNNING ON
 	1 HOST x 1 MPI RANK PER HOST x 1 THREAD PER RANK
        NUMBER OF EQUATIONS:  90774
        NUMBER OF RHS:        1
        NUMBER OF FLOPS:      6.037e+09
        SOLVER ELAPSED TIME:  477ms

               CONVERGENCE CHECKS FOR EQUILIBRIUM ITERATION     3


 AVERAGE FORCE                      8.243E-03   TIME AVG. FORCE       2.684E-03
 LARGEST SCALED RESIDUAL FORCE     -8.461E-03   AT NODE      17271   DOF  3
   INSTANCE: SPIRAL-1                                                                        
  CORRESPONDING RESIDUAL FORCE     -8.461E-03
 LARGEST INCREMENT OF DISP.        -2.040E-03   AT NODE        170   DOF  2
   INSTANCE: SPIRAL-1                                                                        
 LARGEST CORRECTION TO DISP.       -4.400E-05   AT NODE        170   DOF  2
   INSTANCE: SPIRAL-1                                                                        
          FORCE     EQUILIBRIUM NOT ACHIEVED WITHIN TOLERANCE.
 
	SYMMETRIC PURE THREAD-BASED DIRECT SPARSE SOLVER RUNNING ON
 	1 HOST x 1 MPI RANK PER HOST x 1 THREAD PER RANK
        NUMBER OF EQUATIONS:  90774
        NUMBER OF RHS:        1
        NUMBER OF FLOPS:      6.037e+09
        SOLVER ELAPSED TIME:  483ms

               CONVERGENCE CHECKS FOR EQUILIBRIUM ITERATION     4


 AVERAGE FORCE                      8.241E-03   TIME AVG. FORCE       2.684E-03
 LARGEST SCALED RESIDUAL FORCE     -1.009E-05   AT NODE      17271   DOF  1
   INSTANCE: SPIRAL-1                                                                        
  CORRESPONDING RESIDUAL FORCE     -1.009E-05
 LARGEST INCREMENT OF DISP.        -2.040E-03   AT NODE        170   DOF  2
   INSTANCE: SPIRAL-1                                                                        
 LARGEST CORRECTION TO DISP.       -3.968E-07   AT NODE        170   DOF  2
   INSTANCE: SPIRAL-1                                                                        
          THE FORCE     EQUILIBRIUM EQUATIONS HAVE CONVERGED
          TIME INCREMENT MAY NOW INCREASE TO    6.951E-02

 ITERATION SUMMARY FOR THE INCREMENT:   4 TOTAL ITERATIONS, OF WHICH
   0 ARE SEVERE DISCONTINUITY ITERATIONS AND  4 ARE EQUILIBRIUM ITERATIONS.

 TIME INCREMENT COMPLETED  4.634E-02,  FRACTION OF STEP COMPLETED  0.939    
 STEP TIME COMPLETED       0.939    ,  TOTAL TIME COMPLETED        0.939    


  INCREMENT    59 STARTS. ATTEMPT NUMBER  1, TIME INCREMENT  6.139E-02
 
	SYMMETRIC PURE THREAD-BASED DIRECT SPARSE SOLVER RUNNING ON
 	1 HOST x 1 MPI RANK PER HOST x 1 THREAD PER RANK
        NUMBER OF EQUATIONS:  90774
        NUMBER OF RHS:        1
        NUMBER OF FLOPS:      6.037e+09
        SOLVER ELAPSED TIME:  488ms

               CONVERGENCE CHECKS FOR EQUILIBRIUM ITERATION     1


 AVERAGE FORCE                      9.857E-03   TIME AVG. FORCE       2.806E-03
 LARGEST SCALED RESIDUAL FORCE      0.232       AT NODE      17271   DOF  3
   INSTANCE: SPIRAL-1                                                                        
  CORRESPONDING RESIDUAL FORCE      0.232    
 LARGEST INCREMENT OF DISP.        -2.510E-03   AT NODE        170   DOF  2
   INSTANCE: SPIRAL-1                                                                        
 LARGEST CORRECTION TO DISP.        2.428E-04   AT NODE        166   DOF  2
   INSTANCE: SPIRAL-1                                                                        
          FORCE     EQUILIBRIUM NOT ACHIEVED WITHIN TOLERANCE.
 
	SYMMETRIC PURE THREAD-BASED DIRECT SPARSE SOLVER RUNNING ON
 	1 HOST x 1 MPI RANK PER HOST x 1 THREAD PER RANK
        NUMBER OF EQUATIONS:  90774
        NUMBER OF RHS:        1
        NUMBER OF FLOPS:      6.037e+09
        SOLVER ELAPSED TIME:  501ms
 

 ***WARNING: THE SYSTEM MATRIX HAS 1 NEGATIVE EIGENVALUES.
             EXPLANATIONS ARE SUGGESTED AFTER THE FIRST OCCURRENCE OF THIS MESSAGE.

               CONVERGENCE CHECKS FOR EQUILIBRIUM ITERATION     2


 AVERAGE FORCE                      8.617E-03   TIME AVG. FORCE       2.785E-03
 LARGEST SCALED RESIDUAL FORCE     -1.691E-03   AT NODE       8665   DOF  3
   INSTANCE: SPIRAL-1                                                                        
  CORRESPONDING RESIDUAL FORCE     -1.691E-03
 LARGEST INCREMENT OF DISP.        -2.510E-03   AT NODE        170   DOF  2
   INSTANCE: SPIRAL-1                                                                        
 LARGEST CORRECTION TO DISP.       -4.435E-07   AT NODE        166   DOF  3
   INSTANCE: SPIRAL-1                                                                        
          FORCE     EQUILIBRIUM NOT ACHIEVED WITHIN TOLERANCE.
 
	SYMMETRIC PURE THREAD-BASED DIRECT SPARSE SOLVER RUNNING ON
 	1 HOST x 1 MPI RANK PER HOST x 1 THREAD PER RANK
        NUMBER OF EQUATIONS:  90774
        NUMBER OF RHS:        1
        NUMBER OF FLOPS:      6.037e+09
        SOLVER ELAPSED TIME:  500ms

               CONVERGENCE CHECKS FOR EQUILIBRIUM ITERATION     3


 AVERAGE FORCE                      8.629E-03   TIME AVG. FORCE       2.785E-03
 LARGEST SCALED RESIDUAL FORCE     -1.256E-02   AT NODE      17271   DOF  3
   INSTANCE: SPIRAL-1                                                                        
  CORRESPONDING RESIDUAL FORCE     -1.256E-02
 LARGEST INCREMENT OF DISP.        -2.563E-03   AT NODE        170   DOF  2
   INSTANCE: SPIRAL-1                                                                        
 LARGEST CORRECTION TO DISP.       -5.213E-05   AT NODE        170   DOF  2
   INSTANCE: SPIRAL-1                                                                        
          FORCE     EQUILIBRIUM NOT ACHIEVED WITHIN TOLERANCE.
 
	SYMMETRIC PURE THREAD-BASED DIRECT SPARSE SOLVER RUNNING ON
 	1 HOST x 1 MPI RANK PER HOST x 1 THREAD PER RANK
        NUMBER OF EQUATIONS:  90774
        NUMBER OF RHS:        1
        NUMBER OF FLOPS:      6.037e+09
        SOLVER ELAPSED TIME:  496ms

               CONVERGENCE CHECKS FOR EQUILIBRIUM ITERATION     4


 AVERAGE FORCE                      8.622E-03   TIME AVG. FORCE       2.785E-03
 LARGEST SCALED RESIDUAL FORCE     -2.294E-05   AT NODE      17271   DOF  1
   INSTANCE: SPIRAL-1                                                                        
  CORRESPONDING RESIDUAL FORCE     -2.294E-05
 LARGEST INCREMENT OF DISP.        -2.563E-03   AT NODE        170   DOF  2
   INSTANCE: SPIRAL-1                                                                        
 LARGEST CORRECTION TO DISP.       -7.552E-07   AT NODE        170   DOF  2
   INSTANCE: SPIRAL-1                                                                        
          FORCE     EQUILIBRIUM NOT ACHIEVED WITHIN TOLERANCE.
 
	SYMMETRIC PURE THREAD-BASED DIRECT SPARSE SOLVER RUNNING ON
 	1 HOST x 1 MPI RANK PER HOST x 1 THREAD PER RANK
        NUMBER OF EQUATIONS:  90774
        NUMBER OF RHS:        1
        NUMBER OF FLOPS:      6.037e+09
        SOLVER ELAPSED TIME:  490ms

               CONVERGENCE CHECKS FOR EQUILIBRIUM ITERATION     5


 AVERAGE FORCE                      8.622E-03   TIME AVG. FORCE       2.785E-03
 LARGEST SCALED RESIDUAL FORCE     -2.347E-03   AT NODE      17271   DOF  3
   INSTANCE: SPIRAL-1                                                                        
  CORRESPONDING RESIDUAL FORCE     -2.347E-03
 LARGEST INCREMENT OF DISP.        -2.586E-03   AT NODE        170   DOF  2
   INSTANCE: SPIRAL-1                                                                        
 LARGEST CORRECTION TO DISP.       -2.250E-05   AT NODE        170   DOF  2
   INSTANCE: SPIRAL-1                                                                        
          FORCE     EQUILIBRIUM NOT ACHIEVED WITHIN TOLERANCE.
 
	SYMMETRIC PURE THREAD-BASED DIRECT SPARSE SOLVER RUNNING ON
 	1 HOST x 1 MPI RANK PER HOST x 1 THREAD PER RANK
        NUMBER OF EQUATIONS:  90774
        NUMBER OF RHS:        1
        NUMBER OF FLOPS:      6.037e+09
        SOLVER ELAPSED TIME:  509ms

               CONVERGENCE CHECKS FOR EQUILIBRIUM ITERATION     6


 AVERAGE FORCE                      8.625E-03   TIME AVG. FORCE       2.785E-03
 LARGEST SCALED RESIDUAL FORCE      7.587E-06   AT NODE        230   DOF  2
   INSTANCE: SPIRAL-1                                                                        
  CORRESPONDING RESIDUAL FORCE      7.587E-06
 LARGEST INCREMENT OF DISP.        -2.586E-03   AT NODE        170   DOF  2
   INSTANCE: SPIRAL-1                                                                        
 LARGEST CORRECTION TO DISP.        8.425E-08   AT NODE        170   DOF  2
   INSTANCE: SPIRAL-1                                                                        
          THE FORCE     EQUILIBRIUM EQUATIONS HAVE CONVERGED

 ITERATION SUMMARY FOR THE INCREMENT:   6 TOTAL ITERATIONS, OF WHICH
   0 ARE SEVERE DISCONTINUITY ITERATIONS AND  6 ARE EQUILIBRIUM ITERATIONS.

 TIME INCREMENT COMPLETED  6.139E-02,  FRACTION OF STEP COMPLETED   1.00    
 STEP TIME COMPLETED        1.00    ,  TOTAL TIME COMPLETED         1.00    


          THE ANALYSIS HAS BEEN COMPLETED



     ANALYSIS SUMMARY:
     TOTAL OF         59  INCREMENTS
                      15  CUTBACKS IN AUTOMATIC INCREMENTATION
                     335  ITERATIONS INCLUDING CONTACT ITERATIONS IF PRESENT
                     335  PASSES THROUGH THE EQUATION SOLVER OF WHICH 
                     335  INVOLVE MATRIX DECOMPOSITION, INCLUDING
                       0  DECOMPOSITION(S) OF THE MASS MATRIX
                       1  REORDERING OF EQUATIONS TO MINIMIZE WAVEFRONT
                       0  ADDITIONAL RESIDUAL EVALUATIONS FOR LINE SEARCHES
                       0  ADDITIONAL OPERATOR EVALUATIONS FOR LINE SEARCHES
                       4  WARNING MESSAGES DURING USER INPUT PROCESSING
                      70  WARNING MESSAGES DURING ANALYSIS
                       0  ANALYSIS WARNINGS ARE NUMERICAL PROBLEM MESSAGES
                      67  ANALYSIS WARNINGS ARE NEGATIVE EIGENVALUE MESSAGES
                       0  ERROR MESSAGES



     JOB TIME SUMMARY
       USER TIME (SEC)      =     9.76E+02
       SYSTEM TIME (SEC)    =      93.    
       TOTAL CPU TIME (SEC) =     1.07E+03
       WALLCLOCK TIME (SEC) =          498
       MEMORY PEAK (GB)     =            0
