 Abaqus/Standard 2025                  DATE 22-Feb-2026 TIME 02:54:51
 SUMMARY OF JOB INFORMATION:
 STEP  INC ATT SEVERE EQUIL TOTAL  TOTAL      STEP       INC OF       DOF    IF
               DISCON ITERS ITERS  TIME/    TIME/LPF    TIME/LPF    MONITOR RIKS
               ITERS               FREQ
   1     1   1U    0     2     2  0.00       0.00       1.000     
   1     1   2U    0     2     2  0.00       0.00       0.2500    
   1     1   3U    0     4     4  0.00       0.00       0.06250   
   1     1   4U    0     9     9  0.00       0.00       0.01562   
   1     1   5     0     8     8  0.00781    0.00781    0.007812  
   1     2   1     0     4     4  0.0156     0.0156     0.007812  
   1     3   1     0     4     4  0.0234     0.0234     0.007812  
   1     4   1     0     4     4  0.0352     0.0352     0.01172   
   1     5   1     0     7     7  0.0527     0.0527     0.01758   
   1     6   1     0     6     6  0.0703     0.0703     0.01758   
   1     7   1     0     6     6  0.0879     0.0879     0.01758   
   1     8   1     0     6     6  0.105      0.105      0.01758   
   1     9   1     0     4     4  0.123      0.123      0.01758   
   1    10   1     0     4     4  0.141      0.141      0.01758   
   1    11   1U    0     5     5  0.141      0.141      0.02637   
   1    11   2     0     4     4  0.147      0.147      0.006592  
   1    12   1     0     4     4  0.157      0.157      0.009888  
   1    13   1     0     4     4  0.172      0.172      0.01483   
   1    14   1     0     4     4  0.194      0.194      0.02225   
   1    15   1U    0     5     5  0.194      0.194      0.03337   
   1    15   2     0     4     4  0.203      0.203      0.008343  
   1    16   1     0     4     4  0.215      0.215      0.01251   
   1    17   1     0     4     4  0.234      0.234      0.01877   
   1    18   1     0     4     4  0.262      0.262      0.02816   
   1    19   1     0     6     6  0.304      0.304      0.04224   
   1    20   1     0     8     8  0.346      0.346      0.04224   
   1    21   1     0     8     8  0.389      0.389      0.04224   
   1    22   1     0     4     4  0.431      0.431      0.04224   
   1    23   1     0     4     4  0.473      0.473      0.04224   
   1    24   1U    0     5     5  0.473      0.473      0.06335   
   1    24   2     0     4     4  0.489      0.489      0.01584   
   1    25   1     0     4     4  0.513      0.513      0.02376   
   1    26   1     0     4     4  0.548      0.548      0.03564   
   1    27   1     0     4     4  0.602      0.602      0.05345   
   1    28   1     0     4     4  0.682      0.682      0.08018   
   1    29   1     0     5     5  0.802      0.802      0.1203    
   1    30   1     0     5     5  0.923      0.923      0.1203    
   1    31   1     0     3     3  1.00       1.00       0.07745   
                          
 THE ANALYSIS HAS COMPLETED SUCCESSFULLY
