 Abaqus/Standard 2025                  DATE 10-Feb-2026 TIME 14:46:06
 SUMMARY OF JOB INFORMATION:
 STEP  INC ATT SEVERE EQUIL TOTAL  TOTAL      STEP       INC OF       DOF    IF
               DISCON ITERS ITERS  TIME/    TIME/LPF    TIME/LPF    MONITOR RIKS
               ITERS               FREQ
   1     1   1U    0     1     1  0.00       0.00       1.000     
   1     1   2U    0     2     2  0.00       0.00       0.2500    
   1     1   3U    0     2     2  0.00       0.00       0.06250   
   1     1   4U    0     8     8  0.00       0.00       0.01562   
   1     1   5     0     9     9  0.00391    0.00391    0.003906  
   1     2   1     0     6     6  0.00781    0.00781    0.003906  
   1     3   1     0     4     4  0.0117     0.0117     0.003906  
   1     4   1     0     4     4  0.0156     0.0156     0.003906  
   1     5   1     0     6     6  0.0215     0.0215     0.005859  
   1     6   1U    0     5     5  0.0215     0.0215     0.005859  
   1     6   2     0     4     4  0.0229     0.0229     0.001465  
   1     7   1     0     2     2  0.0244     0.0244     0.001465  
   1     8   1     0     4     4  0.0266     0.0266     0.002197  
   1     9   1     0     4     4  0.0299     0.0299     0.003296  
   1    10   1     0     4     4  0.0349     0.0349     0.004944  
   1    11   1U    0     5     5  0.0349     0.0349     0.007416  
   1    11   2     0     4     4  0.0367     0.0367     0.001854  
   1    12   1     0     4     4  0.0395     0.0395     0.002781  
   1    13   1     0     4     4  0.0437     0.0437     0.004171  
   1    14   1     0     4     4  0.0499     0.0499     0.006257  
   1    15   1U    0     5     5  0.0499     0.0499     0.009386  
   1    15   2     0     4     4  0.0523     0.0523     0.002346  
   1    16   1     0     4     4  0.0558     0.0558     0.003520  
   1    17   1     0     4     4  0.0611     0.0611     0.005279  
   1    18   1     0     4     4  0.0690     0.0690     0.007919  
   1    19   1U    0     6     6  0.0690     0.0690     0.01188   
   1    19   2     0     4     4  0.0719     0.0719     0.002970  
   1    20   1     0     4     4  0.0764     0.0764     0.004454  
   1    21   1     0     4     4  0.0831     0.0831     0.006682  
   1    22   1U    0     5     5  0.0831     0.0831     0.01002   
   1    22   2     0     4     4  0.0856     0.0856     0.002506  
   1    23   1     0     4     4  0.0893     0.0893     0.003758  
   1    24   1     0     4     4  0.0950     0.0950     0.005638  
   1    25   1     0     4     4  0.103      0.103      0.008457  
   1    26   1U    0     5     5  0.103      0.103      0.01268   
   1    26   2     0     4     4  0.107      0.107      0.003171  
   1    27   1     0     4     4  0.111      0.111      0.004757  
   1    28   1     0     4     4  0.119      0.119      0.007135  
   1    29   1     0     4     4  0.129      0.129      0.01070   
   1    30   1U    0     5     5  0.129      0.129      0.01605   
   1    30   2     0     4     4  0.133      0.133      0.004014  
   1    31   1     0     4     4  0.139      0.139      0.006020  
   1    32   1     0     4     4  0.148      0.148      0.009031  
   1    33   1     0     4     4  0.162      0.162      0.01355   
   1    34   1U    0     5     5  0.162      0.162      0.02032   
   1    34   2     0     4     4  0.167      0.167      0.005080  
   1    35   1     0     4     4  0.175      0.175      0.007620  
   1    36   1     0     4     4  0.186      0.186      0.01143   
   1    37   1     0     4     4  0.203      0.203      0.01714   
   1    38   1U    0     5     5  0.203      0.203      0.02572   
   1    38   2     0     4     4  0.210      0.210      0.006429  
   1    39   1     0     4     4  0.219      0.219      0.009643  
   1    40   1     0     4     4  0.234      0.234      0.01447   
   1    41   1     0     4     4  0.255      0.255      0.02170   
   1    42   1     0     7     7  0.288      0.288      0.03255   
   1    43   1     0     7     7  0.320      0.320      0.03255   
   1    44   1     0     6     6  0.353      0.353      0.03255   
   1    45   1     0     5     5  0.386      0.386      0.03255   
   1    46   1     0     4     4  0.418      0.418      0.03255   
   1    47   1     0     4     4  0.451      0.451      0.03255   
   1    48   1     0     5     5  0.499      0.499      0.04882   
   1    49   1     0     6     6  0.548      0.548      0.04882   
   1    50   1     0     6     6  0.597      0.597      0.04882   
   1    51   1     0     6     6  0.646      0.646      0.04882   
   1    52   1     0     4     4  0.695      0.695      0.04882   
   1    53   1     0     4     4  0.744      0.744      0.04882   
   1    54   1U    0     5     5  0.744      0.744      0.07323   
   1    54   2     0     4     4  0.762      0.762      0.01831   
   1    55   1     0     4     4  0.789      0.789      0.02746   
   1    56   1     0     4     4  0.830      0.830      0.04119   
   1    57   1     0     4     4  0.892      0.892      0.06179   
   1    58   1U    0    10    10  0.892      0.892      0.09268   
   1    58   2     0     4     4  0.939      0.939      0.04634   
   1    59   1     0     6     6  1.00       1.00       0.06139   
                          
 THE ANALYSIS HAS COMPLETED SUCCESSFULLY
