 Abaqus/Standard 2025                  DATE 22-Feb-2026 TIME 02:54:06
 SUMMARY OF JOB INFORMATION:
 STEP  INC ATT SEVERE EQUIL TOTAL  TOTAL      STEP       INC OF       DOF    IF
               DISCON ITERS ITERS  TIME/    TIME/LPF    TIME/LPF    MONITOR RIKS
               ITERS               FREQ
   1     1   1U    0     2     2  0.00       0.00       1.000     
   1     1   2U    0     2     2  0.00       0.00       0.2500    
   1     1   3U    0     4     4  0.00       0.00       0.06250   
   1     1   4     0    10    10  0.0156     0.0156     0.01562   
   1     2   1     0     5     5  0.0312     0.0312     0.01562   
   1     3   1     0     6     6  0.0469     0.0469     0.01562   
   1     4   1     0     6     6  0.0625     0.0625     0.01562   
   1     5   1     0     4     4  0.0781     0.0781     0.01562   
   1     6   1     0     4     4  0.0938     0.0938     0.01562   
   1     7   1U    0     5     5  0.0938     0.0938     0.02344   
   1     7   2     0     4     4  0.0996     0.0996     0.005859  
   1     8   1     0     4     4  0.108      0.108      0.008789  
   1     9   1     0     4     4  0.122      0.122      0.01318   
   1    10   1     0     4     4  0.141      0.141      0.01978   
   1    11   1U    0     5     5  0.141      0.141      0.02966   
   1    11   2     0     4     4  0.149      0.149      0.007416  
   1    12   1     0     4     4  0.160      0.160      0.01112   
   1    13   1     0     4     4  0.177      0.177      0.01669   
   1    14   1     0     4     4  0.202      0.202      0.02503   
   1    15   1U    0     5     5  0.202      0.202      0.03754   
   1    15   2     0     4     4  0.211      0.211      0.009386  
   1    16   1     0     4     4  0.225      0.225      0.01408   
   1    17   1     0     4     4  0.246      0.246      0.02112   
   1    18   1     0     4     4  0.278      0.278      0.03168   
   1    19   1U    0     5     5  0.278      0.278      0.04751   
   1    19   2     0     4     4  0.290      0.290      0.01188   
   1    20   1     0     4     4  0.308      0.308      0.01782   
   1    21   1     0     4     4  0.334      0.334      0.02673   
   1    22   1     0     4     4  0.374      0.374      0.04009   
   1    23   1U    0     5     5  0.374      0.374      0.06014   
   1    23   2     0     4     4  0.389      0.389      0.01503   
   1    24   1     0     4     4  0.412      0.412      0.02255   
   1    25   1     0     4     4  0.446      0.446      0.03383   
   1    26   1     0     6     6  0.497      0.497      0.05074   
   1    27   1     0     6     6  0.547      0.547      0.05074   
   1    28   1     0     4     4  0.598      0.598      0.05074   
   1    29   1     0     4     4  0.649      0.649      0.05074   
   1    30   1     0     6     6  0.725      0.725      0.07611   
   1    31   1     0     6     6  0.801      0.801      0.07611   
   1    32   1     0     4     4  0.877      0.877      0.07611   
   1    33   1     0     4     4  0.953      0.953      0.07611   
   1    34   1     0     4     4  1.00       1.00       0.04681   
                          
 THE ANALYSIS HAS COMPLETED SUCCESSFULLY
