1

   Abaqus 2025                                  Date 10-Feb-2026   Time 15:26:31
   For use by UNIVERSITAET STUTTGART under license from Dassault Systemes or its subsidiary.

                                                                                 
                                                                                 
 STEP    1     INCREMENT     1     STEP TIME    0.00    


                        S T E P       1     S T A T I C   A N A L Y S I S


                                                                                          

     AUTOMATIC TIME CONTROL WITH -
          A SUGGESTED INITIAL TIME INCREMENT OF                 1.00    
          AND A TOTAL TIME PERIOD OF                            1.00    
          THE MINIMUM TIME INCREMENT ALLOWED IS                1.000E-05
          THE MAXIMUM TIME INCREMENT ALLOWED IS                 1.00    

     LINEAR EQUATION SOLVER TYPE         DIRECT SPARSE

 CONVERGENCE TOLERANCE PARAMETERS FOR FORCE    
     CRITERION FOR RESIDUAL FORCE     FOR A NONLINEAR PROBLEM          5.000E-03
     CRITERION FOR DISP.    CORRECTION IN A NONLINEAR PROBLEM          1.000E-02
     INITIAL VALUE OF TIME AVERAGE FORCE                               1.000E-02
     AVERAGE FORCE     IS TIME AVERAGE FORCE    
     ALTERNATE CRIT. FOR RESIDUAL FORCE     FOR A NONLINEAR PROBLEM    2.000E-02
     CRITERION FOR ZERO FORCE     RELATIVE TO TIME AVRG. FORCE         1.000E-05
     CRITERION FOR RESIDUAL FORCE     WHEN THERE IS ZERO FLUX          1.000E-05
     CRITERION FOR DISP.    CORRECTION WHEN THERE IS ZERO FLUX         1.000E-03
     CRITERION FOR RESIDUAL FORCE     FOR A LINEAR INCREMENT           1.000E-08
     FIELD CONVERSION RATIO                                             1.00    
     CRITERION FOR ZERO FORCE     REL. TO TIME AVRG. MAX. FORCE        1.000E-05
     CRITERION FOR ZERO DISP.    RELATIVE TO CHARACTERISTIC LENGTH     1.000E-08

     VOLUMETRIC STRAIN COMPATIBILITY TOLERANCE FOR HYBRID SOLIDS       1.000E-05
     AXIAL STRAIN COMPATIBILITY TOLERANCE FOR HYBRID BEAMS             1.000E-05
     TRANS. SHEAR STRAIN COMPATIBILITY TOLERANCE FOR HYBRID BEAMS      1.000E-05
     SOFT CONTACT CONSTRAINT COMPATIBILITY TOLERANCE FOR P>P0          5.000E-03
     SOFT CONTACT CONSTRAINT COMPATIBILITY TOLERANCE FOR P=0.0         0.100    
     CONTACT FORCE ERROR TOLERANCE FOR CONVERT SDI=YES                 1.00    
     DISPLACEMENT COMPATIBILITY TOLERANCE FOR DCOUP ELEMENTS           1.000E-05
     ROTATION COMPATIBILITY TOLERANCE FOR DCOUP ELEMENTS               1.000E-05

 EQUILIBRIUM WILL BE CHECKED FOR SEVERE DISCONTINUITY ITERATIONS

 TIME INCREMENTATION CONTROL PARAMETERS:
     FIRST EQUILIBRIUM ITERATION FOR CONSECUTIVE DIVERGENCE CHECK              4
     EQUILIBRIUM ITERATION AT WHICH LOG. CONVERGENCE RATE CHECK BEGINS         8
     EQUILIBRIUM ITERATION AFTER WHICH ALTERNATE RESIDUAL IS USED              9
     MAXIMUM EQUILIBRIUM ITERATIONS ALLOWED                                   16
     EQUILIBRIUM ITERATION COUNT FOR CUT-BACK IN NEXT INCREMENT               10
     MAXIMUM EQUILIB. ITERS IN TWO INCREMENTS FOR TIME INCREMENT INCREASE      4
     MAXIMUM ITERATIONS FOR SEVERE DISCONTINUITIES                            50
     MAXIMUM ATTEMPTS ALLOWED IN AN INCREMENT                                  5
     MAXIMUM DISCON. ITERS IN TWO INCREMENTS FOR TIME INCREMENT INCREASE      50
     MAXIMUM CONTACT AUGMENTATIONS FOR *SURFACE BEHAVIOR,AUGMENTED LAGRANGE   50
     CUT-BACK FACTOR AFTER DIVERGENCE                                 0.2500    
     CUT-BACK FACTOR FOR TOO SLOW CONVERGENCE                         0.5000    
     CUT-BACK FACTOR AFTER TOO MANY EQUILIBRIUM ITERATIONS            0.7500    
     CUT-BACK FACTOR AFTER TOO MANY SEVERE DISCONTINUITY ITERATIONS   0.2500    
     CUT-BACK FACTOR AFTER PROBLEMS IN ELEMENT ASSEMBLY               0.2500    
     INCREASE FACTOR AFTER TWO INCREMENTS THAT CONVERGE QUICKLY        1.500    
     MAX. TIME INCREMENT INCREASE FACTOR ALLOWED                       1.500    
     MAX. TIME INCREMENT INCREASE FACTOR ALLOWED (DYNAMICS)            1.250    
     MAX. TIME INCREMENT INCREASE FACTOR ALLOWED (DIFFUSION)           2.000    
     MINIMUM TIME INCREMENT RATIO FOR EXTRAPOLATION TO OCCUR          0.1000    
     MAX. RATIO OF TIME INCREMENT TO STABILITY LIMIT                   1.000    
     FRACTION OF STABILITY LIMIT FOR NEW TIME INCREMENT               0.9500    
     TIME INCREMENT INCREASE FACTOR BEFORE A TIME POINT                1.000    
     GLOBAL STABILIZATION CONTROL IS NOT USED

          PRINT OF INCREMENT NUMBER, TIME, ETC., EVERY    1  INCREMENTS

     THE MAXIMUM NUMBER OF INCREMENTS IN THIS STEP IS                     100

          LARGE DISPLACEMENT THEORY WILL BE USED

     LINEAR EXTRAPOLATION WILL BE USED

     CHARACTERISTIC ELEMENT LENGTH     8.268E-04

     DETAILS REGARDING ACTUAL SOLUTION WAVEFRONT REQUESTED

     DETAILED OUTPUT OF DIAGNOSTICS TO DATABASE REQUESTED

     PRINT OF INCREMENT NUMBER, TIME, ETC., TO THE MESSAGE FILE EVERY     1  INCREMENTS

     COLLECTING MODEL CONSTRAINT INFORMATION FOR OVERCONSTRAINT CHECKS

     COLLECTING STEP CONSTRAINT INFORMATION FOR OVERCONSTRAINT CHECKS


  INCREMENT     1 STARTS. ATTEMPT NUMBER  1, TIME INCREMENT   1.00    
 
	SYMMETRIC PURE THREAD-BASED DIRECT SPARSE SOLVER RUNNING ON
 	1 HOST x 1 MPI RANK PER HOST x 1 THREAD PER RANK
        NUMBER OF EQUATIONS:  90774
        NUMBER OF RHS:        1
        NUMBER OF FLOPS:      6.037e+09
        SOLVER ELAPSED TIME:  225ms
 

 ***WARNING: THE SYSTEM MATRIX HAS 1 NEGATIVE EIGENVALUES.

     NEGATIVE EIGENVALUES MEAN THAT THE SYSTEM MATRIX IS NOT 
     POSITIVE DEFINITE:
     FOR EXAMPLE, A BIFURCATION (BUCKLING) LOAD MAY HAVE BEEN EXCEEDED.

               CONVERGENCE CHECKS FOR EQUILIBRIUM ITERATION     1


 AVERAGE FORCE                      1.216E+05   TIME AVG. FORCE       1.216E+05
 LARGEST SCALED RESIDUAL FORCE     -4.704E+06   AT NODE      10744   DOF  2
   INSTANCE: SPIRAL-1                                                                        
  CORRESPONDING RESIDUAL FORCE     -4.704E+06
 LARGEST INCREMENT OF DISP.          1.68       AT NODE       3156   DOF  3
   INSTANCE: SPIRAL-1                                                                        
 LARGEST CORRECTION TO DISP.         1.68       AT NODE       3156   DOF  3
   INSTANCE: SPIRAL-1                                                                        
          FORCE     EQUILIBRIUM NOT ACHIEVED WITHIN TOLERANCE.
 
	SYMMETRIC PURE THREAD-BASED DIRECT SPARSE SOLVER RUNNING ON
 	1 HOST x 1 MPI RANK PER HOST x 1 THREAD PER RANK
        NUMBER OF EQUATIONS:  90774
        NUMBER OF RHS:        1
        NUMBER OF FLOPS:      6.037e+09
        SOLVER ELAPSED TIME:  220ms
 

 ***WARNING: THE SYSTEM MATRIX HAS 34327 NEGATIVE EIGENVALUES.
             EXPLANATIONS ARE SUGGESTED AFTER THE FIRST OCCURRENCE OF THIS MESSAGE.
   ELEMENT SPIRAL-1.2 IS DISTORTING EXCESSIVELY.
   ELEMENT SPIRAL-1.3 IS DISTORTING EXCESSIVELY.
   ELEMENT SPIRAL-1.9 IS DISTORTING EXCESSIVELY.
   ELEMENT SPIRAL-1.10 IS DISTORTING EXCESSIVELY.
   ELEMENT SPIRAL-1.12 IS DISTORTING EXCESSIVELY.
   ELEMENT SPIRAL-1.14 IS DISTORTING EXCESSIVELY.
   ELEMENT SPIRAL-1.15 IS DISTORTING EXCESSIVELY.
   ELEMENT SPIRAL-1.18 IS DISTORTING EXCESSIVELY.
   ELEMENT SPIRAL-1.24 IS DISTORTING EXCESSIVELY.
   ELEMENT SPIRAL-1.30 IS DISTORTING EXCESSIVELY.
   ELEMENT SPIRAL-1.31 IS DISTORTING EXCESSIVELY.
   ELEMENT SPIRAL-1.32 IS DISTORTING EXCESSIVELY.
   ELEMENT SPIRAL-1.34 IS DISTORTING EXCESSIVELY.
   ELEMENT SPIRAL-1.39 IS DISTORTING EXCESSIVELY.
   ELEMENT SPIRAL-1.43 IS DISTORTING EXCESSIVELY.
   ELEMENT SPIRAL-1.46 IS DISTORTING EXCESSIVELY.
   ELEMENT SPIRAL-1.51 IS DISTORTING EXCESSIVELY.
   ELEMENT SPIRAL-1.52 IS DISTORTING EXCESSIVELY.
   ELEMENT SPIRAL-1.54 IS DISTORTING EXCESSIVELY.
   ELEMENT SPIRAL-1.55 IS DISTORTING EXCESSIVELY.
   ELEMENT SPIRAL-1.57 IS DISTORTING EXCESSIVELY.
   ELEMENT SPIRAL-1.58 IS DISTORTING EXCESSIVELY.
   ELEMENT SPIRAL-1.59 IS DISTORTING EXCESSIVELY.
   ELEMENT SPIRAL-1.62 IS DISTORTING EXCESSIVELY.
   ELEMENT SPIRAL-1.63 IS DISTORTING EXCESSIVELY.
   ELEMENT SPIRAL-1.64 IS DISTORTING EXCESSIVELY.
   ELEMENT SPIRAL-1.66 IS DISTORTING EXCESSIVELY.
   ELEMENT SPIRAL-1.67 IS DISTORTING EXCESSIVELY.
   ELEMENT SPIRAL-1.68 IS DISTORTING EXCESSIVELY.
   ELEMENT SPIRAL-1.69 IS DISTORTING EXCESSIVELY.
   ELEMENT SPIRAL-1.74 IS DISTORTING EXCESSIVELY.
   ELEMENT SPIRAL-1.75 IS DISTORTING EXCESSIVELY.
   ELEMENT SPIRAL-1.76 IS DISTORTING EXCESSIVELY.
   ELEMENT SPIRAL-1.78 IS DISTORTING EXCESSIVELY.
   ELEMENT SPIRAL-1.79 IS DISTORTING EXCESSIVELY.
   ELEMENT SPIRAL-1.80 IS DISTORTING EXCESSIVELY.
   ELEMENT SPIRAL-1.83 IS DISTORTING EXCESSIVELY.
   ELEMENT SPIRAL-1.84 IS DISTORTING EXCESSIVELY.
   ELEMENT SPIRAL-1.85 IS DISTORTING EXCESSIVELY.
   ELEMENT SPIRAL-1.86 IS DISTORTING EXCESSIVELY.
   ELEMENT SPIRAL-1.87 IS DISTORTING EXCESSIVELY.
   ELEMENT SPIRAL-1.90 IS DISTORTING EXCESSIVELY.
   ELEMENT SPIRAL-1.91 IS DISTORTING EXCESSIVELY.
   ELEMENT SPIRAL-1.93 IS DISTORTING EXCESSIVELY.
   ELEMENT SPIRAL-1.95 IS DISTORTING EXCESSIVELY.
   ELEMENT SPIRAL-1.96 IS DISTORTING EXCESSIVELY.
   ELEMENT SPIRAL-1.98 IS DISTORTING EXCESSIVELY.
   ELEMENT SPIRAL-1.99 IS DISTORTING EXCESSIVELY.
   ELEMENT SPIRAL-1.104 IS DISTORTING EXCESSIVELY.
   ELEMENT SPIRAL-1.105 IS DISTORTING EXCESSIVELY.
   ELEMENT SPIRAL-1.106 IS DISTORTING EXCESSIVELY.
   ELEMENT SPIRAL-1.107 IS DISTORTING EXCESSIVELY.
   ELEMENT SPIRAL-1.108 IS DISTORTING EXCESSIVELY.
   ELEMENT SPIRAL-1.114 IS DISTORTING EXCESSIVELY.
   ELEMENT SPIRAL-1.115 IS DISTORTING EXCESSIVELY.
   ELEMENT SPIRAL-1.117 IS DISTORTING EXCESSIVELY.
   ELEMENT SPIRAL-1.121 IS DISTORTING EXCESSIVELY.
   ELEMENT SPIRAL-1.124 IS DISTORTING EXCESSIVELY.
   ELEMENT SPIRAL-1.130 IS DISTORTING EXCESSIVELY.
   ELEMENT SPIRAL-1.131 IS DISTORTING EXCESSIVELY.
   ELEMENT SPIRAL-1.132 IS DISTORTING EXCESSIVELY.
   ELEMENT SPIRAL-1.133 IS DISTORTING EXCESSIVELY.
   ELEMENT SPIRAL-1.134 IS DISTORTING EXCESSIVELY.
   ELEMENT SPIRAL-1.136 IS DISTORTING EXCESSIVELY.
   ELEMENT SPIRAL-1.137 IS DISTORTING EXCESSIVELY.
   ELEMENT SPIRAL-1.139 IS DISTORTING EXCESSIVELY.
   ELEMENT SPIRAL-1.141 IS DISTORTING EXCESSIVELY.
   ELEMENT SPIRAL-1.142 IS DISTORTING EXCESSIVELY.
   ELEMENT SPIRAL-1.143 IS DISTORTING EXCESSIVELY.
   ELEMENT SPIRAL-1.144 IS DISTORTING EXCESSIVELY.
   ELEMENT SPIRAL-1.149 IS DISTORTING EXCESSIVELY.
   ELEMENT SPIRAL-1.150 IS DISTORTING EXCESSIVELY.
   ELEMENT SPIRAL-1.151 IS DISTORTING EXCESSIVELY.
   ELEMENT SPIRAL-1.154 IS DISTORTING EXCESSIVELY.
   ELEMENT SPIRAL-1.155 IS DISTORTING EXCESSIVELY.
   ELEMENT SPIRAL-1.157 IS DISTORTING EXCESSIVELY.
   ELEMENT SPIRAL-1.158 IS DISTORTING EXCESSIVELY.
   ELEMENT SPIRAL-1.159 IS DISTORTING EXCESSIVELY.
   ELEMENT SPIRAL-1.160 IS DISTORTING EXCESSIVELY.
   ELEMENT SPIRAL-1.164 IS DISTORTING EXCESSIVELY.
   ELEMENT SPIRAL-1.165 IS DISTORTING EXCESSIVELY.
   ELEMENT SPIRAL-1.166 IS DISTORTING EXCESSIVELY.
   ELEMENT SPIRAL-1.169 IS DISTORTING EXCESSIVELY.
   ELEMENT SPIRAL-1.170 IS DISTORTING EXCESSIVELY.
   ELEMENT SPIRAL-1.171 IS DISTORTING EXCESSIVELY.
   ELEMENT SPIRAL-1.173 IS DISTORTING EXCESSIVELY.
   ELEMENT SPIRAL-1.175 IS DISTORTING EXCESSIVELY.
   ELEMENT SPIRAL-1.179 IS DISTORTING EXCESSIVELY.
   ELEMENT SPIRAL-1.181 IS DISTORTING EXCESSIVELY.
   ELEMENT SPIRAL-1.182 IS DISTORTING EXCESSIVELY.
   ELEMENT SPIRAL-1.187 IS DISTORTING EXCESSIVELY.
   ELEMENT SPIRAL-1.188 IS DISTORTING EXCESSIVELY.
   ELEMENT SPIRAL-1.189 IS DISTORTING EXCESSIVELY.
   ELEMENT SPIRAL-1.190 IS DISTORTING EXCESSIVELY.
   ELEMENT SPIRAL-1.191 IS DISTORTING EXCESSIVELY.
   ELEMENT SPIRAL-1.193 IS DISTORTING EXCESSIVELY.
   ELEMENT SPIRAL-1.196 IS DISTORTING EXCESSIVELY.
   ELEMENT SPIRAL-1.197 IS DISTORTING EXCESSIVELY.
   ELEMENT SPIRAL-1.199 IS DISTORTING EXCESSIVELY.
   ELEMENT SPIRAL-1.201 IS DISTORTING EXCESSIVELY.
   ELEMENT SPIRAL-1.204 IS DISTORTING EXCESSIVELY.
   ELEMENT SPIRAL-1.206 IS DISTORTING EXCESSIVELY.
   ELEMENT SPIRAL-1.207 IS DISTORTING EXCESSIVELY.
   ELEMENT SPIRAL-1.208 IS DISTORTING EXCESSIVELY.
   ELEMENT SPIRAL-1.209 IS DISTORTING EXCESSIVELY.
   ELEMENT SPIRAL-1.210 IS DISTORTING EXCESSIVELY.
   ELEMENT SPIRAL-1.211 IS DISTORTING EXCESSIVELY.
   ELEMENT SPIRAL-1.213 IS DISTORTING EXCESSIVELY.
   ELEMENT SPIRAL-1.215 IS DISTORTING EXCESSIVELY.
   ELEMENT SPIRAL-1.216 IS DISTORTING EXCESSIVELY.
   ELEMENT SPIRAL-1.219 IS DISTORTING EXCESSIVELY.
   ELEMENT SPIRAL-1.222 IS DISTORTING EXCESSIVELY.
   ELEMENT SPIRAL-1.224 IS DISTORTING EXCESSIVELY.
   ELEMENT SPIRAL-1.226 IS DISTORTING EXCESSIVELY.
   ELEMENT SPIRAL-1.227 IS DISTORTING EXCESSIVELY.
   ELEMENT SPIRAL-1.232 IS DISTORTING EXCESSIVELY.
   ELEMENT SPIRAL-1.233 IS DISTORTING EXCESSIVELY.
   ELEMENT SPIRAL-1.237 IS DISTORTING EXCESSIVELY.
   ELEMENT SPIRAL-1.238 IS DISTORTING EXCESSIVELY.
   ELEMENT SPIRAL-1.240 IS DISTORTING EXCESSIVELY.
   ELEMENT SPIRAL-1.241 IS DISTORTING EXCESSIVELY.
   ELEMENT SPIRAL-1.245 IS DISTORTING EXCESSIVELY.
   ELEMENT SPIRAL-1.246 IS DISTORTING EXCESSIVELY.
   ELEMENT SPIRAL-1.249 IS DISTORTING EXCESSIVELY.
   ELEMENT SPIRAL-1.250 IS DISTORTING EXCESSIVELY.
   ELEMENT SPIRAL-1.251 IS DISTORTING EXCESSIVELY.
   ELEMENT SPIRAL-1.252 IS DISTORTING EXCESSIVELY.
   ELEMENT SPIRAL-1.254 IS DISTORTING EXCESSIVELY.
   ELEMENT SPIRAL-1.255 IS DISTORTING EXCESSIVELY.
   ELEMENT SPIRAL-1.258 IS DISTORTING EXCESSIVELY.
   ELEMENT SPIRAL-1.259 IS DISTORTING EXCESSIVELY.
   ELEMENT SPIRAL-1.260 IS DISTORTING EXCESSIVELY.
   ELEMENT SPIRAL-1.262 IS DISTORTING EXCESSIVELY.
   ELEMENT SPIRAL-1.263 IS DISTORTING EXCESSIVELY.
   ELEMENT SPIRAL-1.264 IS DISTORTING EXCESSIVELY.
   ELEMENT SPIRAL-1.265 IS DISTORTING EXCESSIVELY.
   ELEMENT SPIRAL-1.266 IS DISTORTING EXCESSIVELY.
   ELEMENT SPIRAL-1.276 IS DISTORTING EXCESSIVELY.
   ELEMENT SPIRAL-1.281 IS DISTORTING EXCESSIVELY.
   ELEMENT SPIRAL-1.282 IS DISTORTING EXCESSIVELY.
   ELEMENT SPIRAL-1.284 IS DISTORTING EXCESSIVELY.
   ELEMENT SPIRAL-1.285 IS DISTORTING EXCESSIVELY.
   ELEMENT SPIRAL-1.286 IS DISTORTING EXCESSIVELY.
   ELEMENT SPIRAL-1.289 IS DISTORTING EXCESSIVELY.
   ELEMENT SPIRAL-1.291 IS DISTORTING EXCESSIVELY.
   ELEMENT SPIRAL-1.293 IS DISTORTING EXCESSIVELY.
   ELEMENT SPIRAL-1.294 IS DISTORTING EXCESSIVELY.
   ELEMENT SPIRAL-1.296 IS DISTORTING EXCESSIVELY.
   ELEMENT SPIRAL-1.297 IS DISTORTING EXCESSIVELY.
   ELEMENT SPIRAL-1.300 IS DISTORTING EXCESSIVELY.
   ELEMENT SPIRAL-1.301 IS DISTORTING EXCESSIVELY.
   ELEMENT SPIRAL-1.302 IS DISTORTING EXCESSIVELY.
   ELEMENT SPIRAL-1.303 IS DISTORTING EXCESSIVELY.
   ELEMENT SPIRAL-1.304 IS DISTORTING EXCESSIVELY.
   ELEMENT SPIRAL-1.305 IS DISTORTING EXCESSIVELY.
   ELEMENT SPIRAL-1.308 IS DISTORTING EXCESSIVELY.
   ELEMENT SPIRAL-1.310 IS DISTORTING EXCESSIVELY.
   ELEMENT SPIRAL-1.313 IS DISTORTING EXCESSIVELY.
   ELEMENT SPIRAL-1.314 IS DISTORTING EXCESSIVELY.
   ELEMENT SPIRAL-1.315 IS DISTORTING EXCESSIVELY.
   ELEMENT SPIRAL-1.318 IS DISTORTING EXCESSIVELY.
   ELEMENT SPIRAL-1.320 IS DISTORTING EXCESSIVELY.
   ELEMENT SPIRAL-1.322 IS DISTORTING EXCESSIVELY.
   ELEMENT SPIRAL-1.325 IS DISTORTING EXCESSIVELY.
   ELEMENT SPIRAL-1.328 IS DISTORTING EXCESSIVELY.
   ELEMENT SPIRAL-1.329 IS DISTORTING EXCESSIVELY.
   ELEMENT SPIRAL-1.330 IS DISTORTING EXCESSIVELY.
   ELEMENT SPIRAL-1.336 IS DISTORTING EXCESSIVELY.
   ELEMENT SPIRAL-1.338 IS DISTORTING EXCESSIVELY.
   ELEMENT SPIRAL-1.339 IS DISTORTING EXCESSIVELY.
   ELEMENT SPIRAL-1.341 IS DISTORTING EXCESSIVELY.
   ELEMENT SPIRAL-1.343 IS DISTORTING EXCESSIVELY.
   ELEMENT SPIRAL-1.346 IS DISTORTING EXCESSIVELY.
   ELEMENT SPIRAL-1.347 IS DISTORTING EXCESSIVELY.
   ELEMENT SPIRAL-1.350 IS DISTORTING EXCESSIVELY.
   ELEMENT SPIRAL-1.353 IS DISTORTING EXCESSIVELY.
   ELEMENT SPIRAL-1.354 IS DISTORTING EXCESSIVELY.
   ELEMENT SPIRAL-1.356 IS DISTORTING EXCESSIVELY.
   ELEMENT SPIRAL-1.359 IS DISTORTING EXCESSIVELY.
   ELEMENT SPIRAL-1.362 IS DISTORTING EXCESSIVELY.
   ELEMENT SPIRAL-1.363 IS DISTORTING EXCESSIVELY.
   ELEMENT SPIRAL-1.364 IS DISTORTING EXCESSIVELY.
   ELEMENT SPIRAL-1.366 IS DISTORTING EXCESSIVELY.
   ELEMENT SPIRAL-1.367 IS DISTORTING EXCESSIVELY.
   ELEMENT SPIRAL-1.368 IS DISTORTING EXCESSIVELY.
   ELEMENT SPIRAL-1.369 IS DISTORTING EXCESSIVELY.
   ELEMENT SPIRAL-1.370 IS DISTORTING EXCESSIVELY.
   ELEMENT SPIRAL-1.372 IS DISTORTING EXCESSIVELY.
   ELEMENT SPIRAL-1.373 IS DISTORTING EXCESSIVELY.
   ELEMENT SPIRAL-1.375 IS DISTORTING EXCESSIVELY.
   ELEMENT SPIRAL-1.378 IS DISTORTING EXCESSIVELY.
   ELEMENT SPIRAL-1.381 IS DISTORTING EXCESSIVELY.
   ELEMENT SPIRAL-1.382 IS DISTORTING EXCESSIVELY.
   ELEMENT SPIRAL-1.385 IS DISTORTING EXCESSIVELY.
   ELEMENT SPIRAL-1.386 IS DISTORTING EXCESSIVELY.
   ELEMENT SPIRAL-1.388 IS DISTORTING EXCESSIVELY.
   ELEMENT SPIRAL-1.389 IS DISTORTING EXCESSIVELY.
   ELEMENT SPIRAL-1.390 IS DISTORTING EXCESSIVELY.
   ELEMENT SPIRAL-1.391 IS DISTORTING EXCESSIVELY.
   ELEMENT SPIRAL-1.393 IS DISTORTING EXCESSIVELY.
   ELEMENT SPIRAL-1.394 IS DISTORTING EXCESSIVELY.
   ELEMENT SPIRAL-1.395 IS DISTORTING EXCESSIVELY.
   ELEMENT SPIRAL-1.396 IS DISTORTING EXCESSIVELY.
   ELEMENT SPIRAL-1.398 IS DISTORTING EXCESSIVELY.
   ELEMENT SPIRAL-1.399 IS DISTORTING EXCESSIVELY.
   ELEMENT SPIRAL-1.400 IS DISTORTING EXCESSIVELY.
   ELEMENT SPIRAL-1.402 IS DISTORTING EXCESSIVELY.
   ELEMENT SPIRAL-1.403 IS DISTORTING EXCESSIVELY.
   ELEMENT SPIRAL-1.404 IS DISTORTING EXCESSIVELY.
   ELEMENT SPIRAL-1.405 IS DISTORTING EXCESSIVELY.
   ELEMENT SPIRAL-1.406 IS DISTORTING EXCESSIVELY.
   ELEMENT SPIRAL-1.408 IS DISTORTING EXCESSIVELY.
   ELEMENT SPIRAL-1.409 IS DISTORTING EXCESSIVELY.
   ELEMENT SPIRAL-1.410 IS DISTORTING EXCESSIVELY.
   ELEMENT SPIRAL-1.411 IS DISTORTING EXCESSIVELY.
   ELEMENT SPIRAL-1.412 IS DISTORTING EXCESSIVELY.
   ELEMENT SPIRAL-1.419 IS DISTORTING EXCESSIVELY.
   ELEMENT SPIRAL-1.420 IS DISTORTING EXCESSIVELY.
   ELEMENT SPIRAL-1.421 IS DISTORTING EXCESSIVELY.
   ELEMENT SPIRAL-1.422 IS DISTORTING EXCESSIVELY.
   ELEMENT SPIRAL-1.427 IS DISTORTING EXCESSIVELY.
   ELEMENT SPIRAL-1.428 IS DISTORTING EXCESSIVELY.
   ELEMENT SPIRAL-1.430 IS DISTORTING EXCESSIVELY.
   ELEMENT SPIRAL-1.431 IS DISTORTING EXCESSIVELY.
   ELEMENT SPIRAL-1.433 IS DISTORTING EXCESSIVELY.
   ELEMENT SPIRAL-1.437 IS DISTORTING EXCESSIVELY.
   ELEMENT SPIRAL-1.439 IS DISTORTING EXCESSIVELY.
   ELEMENT SPIRAL-1.440 IS DISTORTING EXCESSIVELY.
   ELEMENT SPIRAL-1.441 IS DISTORTING EXCESSIVELY.
   ELEMENT SPIRAL-1.442 IS DISTORTING EXCESSIVELY.
   ELEMENT SPIRAL-1.443 IS DISTORTING EXCESSIVELY.
   ELEMENT SPIRAL-1.444 IS DISTORTING EXCESSIVELY.
   ELEMENT SPIRAL-1.446 IS DISTORTING EXCESSIVELY.
   ELEMENT SPIRAL-1.447 IS DISTORTING EXCESSIVELY.
   ELEMENT SPIRAL-1.448 IS DISTORTING EXCESSIVELY.
   ELEMENT SPIRAL-1.451 IS DISTORTING EXCESSIVELY.
   ELEMENT SPIRAL-1.452 IS DISTORTING EXCESSIVELY.
   ELEMENT SPIRAL-1.453 IS DISTORTING EXCESSIVELY.
   ELEMENT SPIRAL-1.455 IS DISTORTING EXCESSIVELY.
   ELEMENT SPIRAL-1.456 IS DISTORTING EXCESSIVELY.
   ELEMENT SPIRAL-1.457 IS DISTORTING EXCESSIVELY.
   ELEMENT SPIRAL-1.458 IS DISTORTING EXCESSIVELY.
   ELEMENT SPIRAL-1.461 IS DISTORTING EXCESSIVELY.
   ELEMENT SPIRAL-1.463 IS DISTORTING EXCESSIVELY.
   ELEMENT SPIRAL-1.466 IS DISTORTING EXCESSIVELY.
   ELEMENT SPIRAL-1.467 IS DISTORTING EXCESSIVELY.
   ELEMENT SPIRAL-1.471 IS DISTORTING EXCESSIVELY.
   ELEMENT SPIRAL-1.474 IS DISTORTING EXCESSIVELY.
   ELEMENT SPIRAL-1.476 IS DISTORTING EXCESSIVELY.
   ELEMENT SPIRAL-1.479 IS DISTORTING EXCESSIVELY.
   ELEMENT SPIRAL-1.481 IS DISTORTING EXCESSIVELY.
   ELEMENT SPIRAL-1.482 IS DISTORTING EXCESSIVELY.
   ELEMENT SPIRAL-1.483 IS DISTORTING EXCESSIVELY.
   ELEMENT SPIRAL-1.487 IS DISTORTING EXCESSIVELY.
   ELEMENT SPIRAL-1.489 IS DISTORTING EXCESSIVELY.
   ELEMENT SPIRAL-1.491 IS DISTORTING EXCESSIVELY.
   ELEMENT SPIRAL-1.492 IS DISTORTING EXCESSIVELY.
   ELEMENT SPIRAL-1.493 IS DISTORTING EXCESSIVELY.
   ELEMENT SPIRAL-1.494 IS DISTORTING EXCESSIVELY.
   ELEMENT SPIRAL-1.495 IS DISTORTING EXCESSIVELY.
   ELEMENT SPIRAL-1.497 IS DISTORTING EXCESSIVELY.
   ELEMENT SPIRAL-1.500 IS DISTORTING EXCESSIVELY.
   ELEMENT SPIRAL-1.501 IS DISTORTING EXCESSIVELY.
   ELEMENT SPIRAL-1.503 IS DISTORTING EXCESSIVELY.
   ELEMENT SPIRAL-1.505 IS DISTORTING EXCESSIVELY.
   ELEMENT SPIRAL-1.507 IS DISTORTING EXCESSIVELY.
   ELEMENT SPIRAL-1.508 IS DISTORTING EXCESSIVELY.
   ELEMENT SPIRAL-1.509 IS DISTORTING EXCESSIVELY.
   ELEMENT SPIRAL-1.512 IS DISTORTING EXCESSIVELY.
   ELEMENT SPIRAL-1.513 IS DISTORTING EXCESSIVELY.
   ELEMENT SPIRAL-1.514 IS DISTORTING EXCESSIVELY.
   ELEMENT SPIRAL-1.516 IS DISTORTING EXCESSIVELY.
   ELEMENT SPIRAL-1.517 IS DISTORTING EXCESSIVELY.
   ELEMENT SPIRAL-1.518 IS DISTORTING EXCESSIVELY.
   ELEMENT SPIRAL-1.519 IS DISTORTING EXCESSIVELY.
   ELEMENT SPIRAL-1.520 IS DISTORTING EXCESSIVELY.
   ELEMENT SPIRAL-1.528 IS DISTORTING EXCESSIVELY.
   ELEMENT SPIRAL-1.529 IS DISTORTING EXCESSIVELY.
   ELEMENT SPIRAL-1.531 IS DISTORTING EXCESSIVELY.
   ELEMENT SPIRAL-1.532 IS DISTORTING EXCESSIVELY.
   ELEMENT SPIRAL-1.533 IS DISTORTING EXCESSIVELY.
   ELEMENT SPIRAL-1.535 IS DISTORTING EXCESSIVELY.
   ELEMENT SPIRAL-1.539 IS DISTORTING EXCESSIVELY.
   ELEMENT SPIRAL-1.540 IS DISTORTING EXCESSIVELY.
   ELEMENT SPIRAL-1.544 IS DISTORTING EXCESSIVELY.
   ELEMENT SPIRAL-1.545 IS DISTORTING EXCESSIVELY.
   ELEMENT SPIRAL-1.546 IS DISTORTING EXCESSIVELY.
   ELEMENT SPIRAL-1.547 IS DISTORTING EXCESSIVELY.
   ELEMENT SPIRAL-1.549 IS DISTORTING EXCESSIVELY.
   ELEMENT SPIRAL-1.550 IS DISTORTING EXCESSIVELY.
   ELEMENT SPIRAL-1.553 IS DISTORTING EXCESSIVELY.
   ELEMENT SPIRAL-1.556 IS DISTORTING EXCESSIVELY.
   ELEMENT SPIRAL-1.557 IS DISTORTING EXCESSIVELY.
   ELEMENT SPIRAL-1.558 IS DISTORTING EXCESSIVELY.
   ELEMENT SPIRAL-1.559 IS DISTORTING EXCESSIVELY.
   ELEMENT SPIRAL-1.560 IS DISTORTING EXCESSIVELY.
   ELEMENT SPIRAL-1.561 IS DISTORTING EXCESSIVELY.
   ELEMENT SPIRAL-1.562 IS DISTORTING EXCESSIVELY.
   ELEMENT SPIRAL-1.563 IS DISTORTING EXCESSIVELY.
   ELEMENT SPIRAL-1.565 IS DISTORTING EXCESSIVELY.
   ELEMENT SPIRAL-1.566 IS DISTORTING EXCESSIVELY.
   ELEMENT SPIRAL-1.570 IS DISTORTING EXCESSIVELY.
   ELEMENT SPIRAL-1.571 IS DISTORTING EXCESSIVELY.
   ELEMENT SPIRAL-1.572 IS DISTORTING EXCESSIVELY.
   ELEMENT SPIRAL-1.573 IS DISTORTING EXCESSIVELY.
   ELEMENT SPIRAL-1.575 IS DISTORTING EXCESSIVELY.
   ELEMENT SPIRAL-1.580 IS DISTORTING EXCESSIVELY.
   ELEMENT SPIRAL-1.581 IS DISTORTING EXCESSIVELY.
   ELEMENT SPIRAL-1.584 IS DISTORTING EXCESSIVELY.
   ELEMENT SPIRAL-1.585 IS DISTORTING EXCESSIVELY.
   ELEMENT SPIRAL-1.586 IS DISTORTING EXCESSIVELY.
   ELEMENT SPIRAL-1.587 IS DISTORTING EXCESSIVELY.
   ELEMENT SPIRAL-1.588 IS DISTORTING EXCESSIVELY.
   ELEMENT SPIRAL-1.591 IS DISTORTING EXCESSIVELY.
   ELEMENT SPIRAL-1.592 IS DISTORTING EXCESSIVELY.
   ELEMENT SPIRAL-1.595 IS DISTORTING EXCESSIVELY.
   ELEMENT SPIRAL-1.596 IS DISTORTING EXCESSIVELY.
   ELEMENT SPIRAL-1.597 IS DISTORTING EXCESSIVELY.
   ELEMENT SPIRAL-1.598 IS DISTORTING EXCESSIVELY.
   ELEMENT SPIRAL-1.601 IS DISTORTING EXCESSIVELY.
   ELEMENT SPIRAL-1.603 IS DISTORTING EXCESSIVELY.
   ELEMENT SPIRAL-1.604 IS DISTORTING EXCESSIVELY.
   ELEMENT SPIRAL-1.606 IS DISTORTING EXCESSIVELY.
   ELEMENT SPIRAL-1.607 IS DISTORTING EXCESSIVELY.
   ELEMENT SPIRAL-1.609 IS DISTORTING EXCESSIVELY.
   ELEMENT SPIRAL-1.612 IS DISTORTING EXCESSIVELY.
   ELEMENT SPIRAL-1.615 IS DISTORTING EXCESSIVELY.
   ELEMENT SPIRAL-1.616 IS DISTORTING EXCESSIVELY.
   ELEMENT SPIRAL-1.619 IS DISTORTING EXCESSIVELY.
   ELEMENT SPIRAL-1.624 IS DISTORTING EXCESSIVELY.
   ELEMENT SPIRAL-1.625 IS DISTORTING EXCESSIVELY.
   ELEMENT SPIRAL-1.627 IS DISTORTING EXCESSIVELY.
   ELEMENT SPIRAL-1.628 IS DISTORTING EXCESSIVELY.
   ELEMENT SPIRAL-1.629 IS DISTORTING EXCESSIVELY.
   ELEMENT SPIRAL-1.636 IS DISTORTING EXCESSIVELY.
   ELEMENT SPIRAL-1.637 IS DISTORTING EXCESSIVELY.
   ELEMENT SPIRAL-1.643 IS DISTORTING EXCESSIVELY.
   ELEMENT SPIRAL-1.646 IS DISTORTING EXCESSIVELY.
   ELEMENT SPIRAL-1.647 IS DISTORTING EXCESSIVELY.
   ELEMENT SPIRAL-1.649 IS DISTORTING EXCESSIVELY.
   ELEMENT SPIRAL-1.650 IS DISTORTING EXCESSIVELY.
   ELEMENT SPIRAL-1.651 IS DISTORTING EXCESSIVELY.
   ELEMENT SPIRAL-1.654 IS DISTORTING EXCESSIVELY.
   ELEMENT SPIRAL-1.655 IS DISTORTING EXCESSIVELY.
   ELEMENT SPIRAL-1.657 IS DISTORTING EXCESSIVELY.
   ELEMENT SPIRAL-1.658 IS DISTORTING EXCESSIVELY.
   ELEMENT SPIRAL-1.660 IS DISTORTING EXCESSIVELY.
   ELEMENT SPIRAL-1.663 IS DISTORTING EXCESSIVELY.
   ELEMENT SPIRAL-1.664 IS DISTORTING EXCESSIVELY.
   ELEMENT SPIRAL-1.665 IS DISTORTING EXCESSIVELY.
   ELEMENT SPIRAL-1.668 IS DISTORTING EXCESSIVELY.
   ELEMENT SPIRAL-1.669 IS DISTORTING EXCESSIVELY.
   ELEMENT SPIRAL-1.672 IS DISTORTING EXCESSIVELY.
   ELEMENT SPIRAL-1.675 IS DISTORTING EXCESSIVELY.
   ELEMENT SPIRAL-1.676 IS DISTORTING EXCESSIVELY.
   ELEMENT SPIRAL-1.679 IS DISTORTING EXCESSIVELY.
   ELEMENT SPIRAL-1.680 IS DISTORTING EXCESSIVELY.
   ELEMENT SPIRAL-1.681 IS DISTORTING EXCESSIVELY.
   ELEMENT SPIRAL-1.683 IS DISTORTING EXCESSIVELY.
   ELEMENT SPIRAL-1.684 IS DISTORTING EXCESSIVELY.
   ELEMENT SPIRAL-1.687 IS DISTORTING EXCESSIVELY.
   ELEMENT SPIRAL-1.689 IS DISTORTING EXCESSIVELY.
   ELEMENT SPIRAL-1.692 IS DISTORTING EXCESSIVELY.
   ELEMENT SPIRAL-1.694 IS DISTORTING EXCESSIVELY.
   ELEMENT SPIRAL-1.696 IS DISTORTING EXCESSIVELY.
   ELEMENT SPIRAL-1.697 IS DISTORTING EXCESSIVELY.
   ELEMENT SPIRAL-1.699 IS DISTORTING EXCESSIVELY.
   ELEMENT SPIRAL-1.700 IS DISTORTING EXCESSIVELY.
   ELEMENT SPIRAL-1.701 IS DISTORTING EXCESSIVELY.
   ELEMENT SPIRAL-1.702 IS DISTORTING EXCESSIVELY.
   ELEMENT SPIRAL-1.703 IS DISTORTING EXCESSIVELY.
   ELEMENT SPIRAL-1.706 IS DISTORTING EXCESSIVELY.
   ELEMENT SPIRAL-1.707 IS DISTORTING EXCESSIVELY.
   ELEMENT SPIRAL-1.709 IS DISTORTING EXCESSIVELY.
   ELEMENT SPIRAL-1.710 IS DISTORTING EXCESSIVELY.
   ELEMENT SPIRAL-1.714 IS DISTORTING EXCESSIVELY.
   ELEMENT SPIRAL-1.716 IS DISTORTING EXCESSIVELY.
   ELEMENT SPIRAL-1.717 IS DISTORTING EXCESSIVELY.
   ELEMENT SPIRAL-1.718 IS DISTORTING EXCESSIVELY.
   ELEMENT SPIRAL-1.720 IS DISTORTING EXCESSIVELY.
   ELEMENT SPIRAL-1.721 IS DISTORTING EXCESSIVELY.
   ELEMENT SPIRAL-1.722 IS DISTORTING EXCESSIVELY.
   ELEMENT SPIRAL-1.724 IS DISTORTING EXCESSIVELY.
   ELEMENT SPIRAL-1.725 IS DISTORTING EXCESSIVELY.
   ELEMENT SPIRAL-1.727 IS DISTORTING EXCESSIVELY.
   ELEMENT SPIRAL-1.729 IS DISTORTING EXCESSIVELY.
   ELEMENT SPIRAL-1.731 IS DISTORTING EXCESSIVELY.
   ELEMENT SPIRAL-1.732 IS DISTORTING EXCESSIVELY.
   ELEMENT SPIRAL-1.733 IS DISTORTING EXCESSIVELY.
   ELEMENT SPIRAL-1.734 IS DISTORTING EXCESSIVELY.
   ELEMENT SPIRAL-1.736 IS DISTORTING EXCESSIVELY.
   ELEMENT SPIRAL-1.738 IS DISTORTING EXCESSIVELY.
   ELEMENT SPIRAL-1.741 IS DISTORTING EXCESSIVELY.
   ELEMENT SPIRAL-1.742 IS DISTORTING EXCESSIVELY.
   ELEMENT SPIRAL-1.745 IS DISTORTING EXCESSIVELY.
   ELEMENT SPIRAL-1.750 IS DISTORTING EXCESSIVELY.
   ELEMENT SPIRAL-1.751 IS DISTORTING EXCESSIVELY.
   ELEMENT SPIRAL-1.752 IS DISTORTING EXCESSIVELY.
   ELEMENT SPIRAL-1.753 IS DISTORTING EXCESSIVELY.
   ELEMENT SPIRAL-1.755 IS DISTORTING EXCESSIVELY.
   ELEMENT SPIRAL-1.758 IS DISTORTING EXCESSIVELY.
   ELEMENT SPIRAL-1.759 IS DISTORTING EXCESSIVELY.
   ELEMENT SPIRAL-1.761 IS DISTORTING EXCESSIVELY.
   ELEMENT SPIRAL-1.762 IS DISTORTING EXCESSIVELY.
   ELEMENT SPIRAL-1.763 IS DISTORTING EXCESSIVELY.
   ELEMENT SPIRAL-1.765 IS DISTORTING EXCESSIVELY.
   ELEMENT SPIRAL-1.766 IS DISTORTING EXCESSIVELY.
   ELEMENT SPIRAL-1.767 IS DISTORTING EXCESSIVELY.
   ELEMENT SPIRAL-1.768 IS DISTORTING EXCESSIVELY.
   ELEMENT SPIRAL-1.771 IS DISTORTING EXCESSIVELY.
   ELEMENT SPIRAL-1.773 IS DISTORTING EXCESSIVELY.
   ELEMENT SPIRAL-1.774 IS DISTORTING EXCESSIVELY.
   ELEMENT SPIRAL-1.775 IS DISTORTING EXCESSIVELY.
   ELEMENT SPIRAL-1.776 IS DISTORTING EXCESSIVELY.
   ELEMENT SPIRAL-1.777 IS DISTORTING EXCESSIVELY.
   ELEMENT SPIRAL-1.778 IS DISTORTING EXCESSIVELY.
   ELEMENT SPIRAL-1.779 IS DISTORTING EXCESSIVELY.
   ELEMENT SPIRAL-1.780 IS DISTORTING EXCESSIVELY.
   ELEMENT SPIRAL-1.784 IS DISTORTING EXCESSIVELY.
   ELEMENT SPIRAL-1.785 IS DISTORTING EXCESSIVELY.
   ELEMENT SPIRAL-1.786 IS DISTORTING EXCESSIVELY.
   ELEMENT SPIRAL-1.787 IS DISTORTING EXCESSIVELY.
   ELEMENT SPIRAL-1.789 IS DISTORTING EXCESSIVELY.
   ELEMENT SPIRAL-1.791 IS DISTORTING EXCESSIVELY.
   ELEMENT SPIRAL-1.794 IS DISTORTING EXCESSIVELY.
   ELEMENT SPIRAL-1.795 IS DISTORTING EXCESSIVELY.
   ELEMENT SPIRAL-1.798 IS DISTORTING EXCESSIVELY.
   ELEMENT SPIRAL-1.801 IS DISTORTING EXCESSIVELY.
   ELEMENT SPIRAL-1.804 IS DISTORTING EXCESSIVELY.
   ELEMENT SPIRAL-1.806 IS DISTORTING EXCESSIVELY.
   ELEMENT SPIRAL-1.807 IS DISTORTING EXCESSIVELY.
   ELEMENT SPIRAL-1.809 IS DISTORTING EXCESSIVELY.
   ELEMENT SPIRAL-1.810 IS DISTORTING EXCESSIVELY.
   ELEMENT SPIRAL-1.813 IS DISTORTING EXCESSIVELY.
   ELEMENT SPIRAL-1.815 IS DISTORTING EXCESSIVELY.
   ELEMENT SPIRAL-1.816 IS DISTORTING EXCESSIVELY.
   ELEMENT SPIRAL-1.817 IS DISTORTING EXCESSIVELY.
   ELEMENT SPIRAL-1.819 IS DISTORTING EXCESSIVELY.
   ELEMENT SPIRAL-1.820 IS DISTORTING EXCESSIVELY.
   ELEMENT SPIRAL-1.823 IS DISTORTING EXCESSIVELY.
   ELEMENT SPIRAL-1.827 IS DISTORTING EXCESSIVELY.
   ELEMENT SPIRAL-1.828 IS DISTORTING EXCESSIVELY.
   ELEMENT SPIRAL-1.830 IS DISTORTING EXCESSIVELY.
   ELEMENT SPIRAL-1.831 IS DISTORTING EXCESSIVELY.
   ELEMENT SPIRAL-1.839 IS DISTORTING EXCESSIVELY.
   ELEMENT SPIRAL-1.842 IS DISTORTING EXCESSIVELY.
   ELEMENT SPIRAL-1.845 IS DISTORTING EXCESSIVELY.
   ELEMENT SPIRAL-1.846 IS DISTORTING EXCESSIVELY.
   ELEMENT SPIRAL-1.851 IS DISTORTING EXCESSIVELY.
   ELEMENT SPIRAL-1.857 IS DISTORTING EXCESSIVELY.
   ELEMENT SPIRAL-1.858 IS DISTORTING EXCESSIVELY.
   ELEMENT SPIRAL-1.859 IS DISTORTING EXCESSIVELY.
   ELEMENT SPIRAL-1.860 IS DISTORTING EXCESSIVELY.
   ELEMENT SPIRAL-1.861 IS DISTORTING EXCESSIVELY.
   ELEMENT SPIRAL-1.865 IS DISTORTING EXCESSIVELY.
   ELEMENT SPIRAL-1.866 IS DISTORTING EXCESSIVELY.
   ELEMENT SPIRAL-1.867 IS DISTORTING EXCESSIVELY.
   ELEMENT SPIRAL-1.868 IS DISTORTING EXCESSIVELY.
   ELEMENT SPIRAL-1.871 IS DISTORTING EXCESSIVELY.
   ELEMENT SPIRAL-1.872 IS DISTORTING EXCESSIVELY.
   ELEMENT SPIRAL-1.873 IS DISTORTING EXCESSIVELY.
   ELEMENT SPIRAL-1.874 IS DISTORTING EXCESSIVELY.
   ELEMENT SPIRAL-1.876 IS DISTORTING EXCESSIVELY.
   ELEMENT SPIRAL-1.877 IS DISTORTING EXCESSIVELY.
   ELEMENT SPIRAL-1.878 IS DISTORTING EXCESSIVELY.
   ELEMENT SPIRAL-1.879 IS DISTORTING EXCESSIVELY.
   ELEMENT SPIRAL-1.881 IS DISTORTING EXCESSIVELY.
   ELEMENT SPIRAL-1.883 IS DISTORTING EXCESSIVELY.
   ELEMENT SPIRAL-1.884 IS DISTORTING EXCESSIVELY.
   ELEMENT SPIRAL-1.889 IS DISTORTING EXCESSIVELY.
   ELEMENT SPIRAL-1.890 IS DISTORTING EXCESSIVELY.
   ELEMENT SPIRAL-1.891 IS DISTORTING EXCESSIVELY.
   ELEMENT SPIRAL-1.894 IS DISTORTING EXCESSIVELY.
   ELEMENT SPIRAL-1.895 IS DISTORTING EXCESSIVELY.
   ELEMENT SPIRAL-1.896 IS DISTORTING EXCESSIVELY.
   ELEMENT SPIRAL-1.898 IS DISTORTING EXCESSIVELY.
   ELEMENT SPIRAL-1.900 IS DISTORTING EXCESSIVELY.
   ELEMENT SPIRAL-1.902 IS DISTORTING EXCESSIVELY.
   ELEMENT SPIRAL-1.904 IS DISTORTING EXCESSIVELY.
   ELEMENT SPIRAL-1.906 IS DISTORTING EXCESSIVELY.
   ELEMENT SPIRAL-1.907 IS DISTORTING EXCESSIVELY.
   ELEMENT SPIRAL-1.908 IS DISTORTING EXCESSIVELY.
   ELEMENT SPIRAL-1.909 IS DISTORTING EXCESSIVELY.
   ELEMENT SPIRAL-1.910 IS DISTORTING EXCESSIVELY.
   ELEMENT SPIRAL-1.911 IS DISTORTING EXCESSIVELY.
   ELEMENT SPIRAL-1.913 IS DISTORTING EXCESSIVELY.
   ELEMENT SPIRAL-1.917 IS DISTORTING EXCESSIVELY.
   ELEMENT SPIRAL-1.918 IS DISTORTING EXCESSIVELY.
   ELEMENT SPIRAL-1.919 IS DISTORTING EXCESSIVELY.
   ELEMENT SPIRAL-1.921 IS DISTORTING EXCESSIVELY.
   ELEMENT SPIRAL-1.922 IS DISTORTING EXCESSIVELY.
   ELEMENT SPIRAL-1.924 IS DISTORTING EXCESSIVELY.
   ELEMENT SPIRAL-1.927 IS DISTORTING EXCESSIVELY.
   ELEMENT SPIRAL-1.928 IS DISTORTING EXCESSIVELY.
   ELEMENT SPIRAL-1.929 IS DISTORTING EXCESSIVELY.
   ELEMENT SPIRAL-1.930 IS DISTORTING EXCESSIVELY.
   ELEMENT SPIRAL-1.931 IS DISTORTING EXCESSIVELY.
   ELEMENT SPIRAL-1.932 IS DISTORTING EXCESSIVELY.
   ELEMENT SPIRAL-1.933 IS DISTORTING EXCESSIVELY.
   ELEMENT SPIRAL-1.934 IS DISTORTING EXCESSIVELY.
   ELEMENT SPIRAL-1.935 IS DISTORTING EXCESSIVELY.
   ELEMENT SPIRAL-1.936 IS DISTORTING EXCESSIVELY.
   ELEMENT SPIRAL-1.939 IS DISTORTING EXCESSIVELY.
   ELEMENT SPIRAL-1.946 IS DISTORTING EXCESSIVELY.
   ELEMENT SPIRAL-1.947 IS DISTORTING EXCESSIVELY.
   ELEMENT SPIRAL-1.950 IS DISTORTING EXCESSIVELY.
   ELEMENT SPIRAL-1.951 IS DISTORTING EXCESSIVELY.
   ELEMENT SPIRAL-1.956 IS DISTORTING EXCESSIVELY.
   ELEMENT SPIRAL-1.957 IS DISTORTING EXCESSIVELY.
   ELEMENT SPIRAL-1.958 IS DISTORTING EXCESSIVELY.
   ELEMENT SPIRAL-1.959 IS DISTORTING EXCESSIVELY.
   ELEMENT SPIRAL-1.960 IS DISTORTING EXCESSIVELY.
   ELEMENT SPIRAL-1.961 IS DISTORTING EXCESSIVELY.
   ELEMENT SPIRAL-1.964 IS DISTORTING EXCESSIVELY.
   ELEMENT SPIRAL-1.965 IS DISTORTING EXCESSIVELY.
   ELEMENT SPIRAL-1.967 IS DISTORTING EXCESSIVELY.
   ELEMENT SPIRAL-1.968 IS DISTORTING EXCESSIVELY.
   ELEMENT SPIRAL-1.969 IS DISTORTING EXCESSIVELY.
   ELEMENT SPIRAL-1.970 IS DISTORTING EXCESSIVELY.
   ELEMENT SPIRAL-1.972 IS DISTORTING EXCESSIVELY.
   ELEMENT SPIRAL-1.979 IS DISTORTING EXCESSIVELY.
   ELEMENT SPIRAL-1.983 IS DISTORTING EXCESSIVELY.
   ELEMENT SPIRAL-1.984 IS DISTORTING EXCESSIVELY.
   ELEMENT SPIRAL-1.986 IS DISTORTING EXCESSIVELY.
   ELEMENT SPIRAL-1.988 IS DISTORTING EXCESSIVELY.
   ELEMENT SPIRAL-1.990 IS DISTORTING EXCESSIVELY.
   ELEMENT SPIRAL-1.996 IS DISTORTING EXCESSIVELY.
   ELEMENT SPIRAL-1.998 IS DISTORTING EXCESSIVELY.
   ELEMENT SPIRAL-1.1000 IS DISTORTING EXCESSIVELY.
   ELEMENT SPIRAL-1.1001 IS DISTORTING EXCESSIVELY.
   ELEMENT SPIRAL-1.1003 IS DISTORTING EXCESSIVELY.
   ELEMENT SPIRAL-1.1004 IS DISTORTING EXCESSIVELY.
   ELEMENT SPIRAL-1.1005 IS DISTORTING EXCESSIVELY.
   ELEMENT SPIRAL-1.1007 IS DISTORTING EXCESSIVELY.
   ELEMENT SPIRAL-1.1008 IS DISTORTING EXCESSIVELY.
   ELEMENT SPIRAL-1.1011 IS DISTORTING EXCESSIVELY.
   ELEMENT SPIRAL-1.1013 IS DISTORTING EXCESSIVELY.
   ELEMENT SPIRAL-1.1017 IS DISTORTING EXCESSIVELY.
   ELEMENT SPIRAL-1.1018 IS DISTORTING EXCESSIVELY.
   ELEMENT SPIRAL-1.1019 IS DISTORTING EXCESSIVELY.
   ELEMENT SPIRAL-1.1020 IS DISTORTING EXCESSIVELY.
   ELEMENT SPIRAL-1.1022 IS DISTORTING EXCESSIVELY.
   ELEMENT SPIRAL-1.1023 IS DISTORTING EXCESSIVELY.
   ELEMENT SPIRAL-1.1027 IS DISTORTING EXCESSIVELY.
   ELEMENT SPIRAL-1.1030 IS DISTORTING EXCESSIVELY.
   ELEMENT SPIRAL-1.1031 IS DISTORTING EXCESSIVELY.
   ELEMENT SPIRAL-1.1032 IS DISTORTING EXCESSIVELY.
   ELEMENT SPIRAL-1.1033 IS DISTORTING EXCESSIVELY.
   ELEMENT SPIRAL-1.1034 IS DISTORTING EXCESSIVELY.
   ELEMENT SPIRAL-1.1035 IS DISTORTING EXCESSIVELY.
   ELEMENT SPIRAL-1.1040 IS DISTORTING EXCESSIVELY.
   ELEMENT SPIRAL-1.1043 IS DISTORTING EXCESSIVELY.
   ELEMENT SPIRAL-1.1046 IS DISTORTING EXCESSIVELY.
   ELEMENT SPIRAL-1.1047 IS DISTORTING EXCESSIVELY.
   ELEMENT SPIRAL-1.1048 IS DISTORTING EXCESSIVELY.
   ELEMENT SPIRAL-1.1049 IS DISTORTING EXCESSIVELY.
   ELEMENT SPIRAL-1.1051 IS DISTORTING EXCESSIVELY.
   ELEMENT SPIRAL-1.1053 IS DISTORTING EXCESSIVELY.
   ELEMENT SPIRAL-1.1055 IS DISTORTING EXCESSIVELY.
   ELEMENT SPIRAL-1.1056 IS DISTORTING EXCESSIVELY.
   ELEMENT SPIRAL-1.1057 IS DISTORTING EXCESSIVELY.
   ELEMENT SPIRAL-1.1063 IS DISTORTING EXCESSIVELY.
   ELEMENT SPIRAL-1.1067 IS DISTORTING EXCESSIVELY.
   ELEMENT SPIRAL-1.1071 IS DISTORTING EXCESSIVELY.
   ELEMENT SPIRAL-1.1072 IS DISTORTING EXCESSIVELY.
   ELEMENT SPIRAL-1.1074 IS DISTORTING EXCESSIVELY.
   ELEMENT SPIRAL-1.1077 IS DISTORTING EXCESSIVELY.
   ELEMENT SPIRAL-1.1078 IS DISTORTING EXCESSIVELY.
   ELEMENT SPIRAL-1.1079 IS DISTORTING EXCESSIVELY.
   ELEMENT SPIRAL-1.1084 IS DISTORTING EXCESSIVELY.
   ELEMENT SPIRAL-1.1088 IS DISTORTING EXCESSIVELY.
   ELEMENT SPIRAL-1.1090 IS DISTORTING EXCESSIVELY.
   ELEMENT SPIRAL-1.1091 IS DISTORTING EXCESSIVELY.
   ELEMENT SPIRAL-1.1093 IS DISTORTING EXCESSIVELY.
   ELEMENT SPIRAL-1.1095 IS DISTORTING EXCESSIVELY.
   ELEMENT SPIRAL-1.1096 IS DISTORTING EXCESSIVELY.
   ELEMENT SPIRAL-1.1098 IS DISTORTING EXCESSIVELY.
   ELEMENT SPIRAL-1.1099 IS DISTORTING EXCESSIVELY.
   ELEMENT SPIRAL-1.1100 IS DISTORTING EXCESSIVELY.
   ELEMENT SPIRAL-1.1101 IS DISTORTING EXCESSIVELY.
   ELEMENT SPIRAL-1.1102 IS DISTORTING EXCESSIVELY.
   ELEMENT SPIRAL-1.1103 IS DISTORTING EXCESSIVELY.
   ELEMENT SPIRAL-1.1104 IS DISTORTING EXCESSIVELY.
   ELEMENT SPIRAL-1.1106 IS DISTORTING EXCESSIVELY.
   ELEMENT SPIRAL-1.1109 IS DISTORTING EXCESSIVELY.
   ELEMENT SPIRAL-1.1114 IS DISTORTING EXCESSIVELY.
   ELEMENT SPIRAL-1.1115 IS DISTORTING EXCESSIVELY.
   ELEMENT SPIRAL-1.1120 IS DISTORTING EXCESSIVELY.
   ELEMENT SPIRAL-1.1122 IS DISTORTING EXCESSIVELY.
   ELEMENT SPIRAL-1.1124 IS DISTORTING EXCESSIVELY.
   ELEMENT SPIRAL-1.1125 IS DISTORTING EXCESSIVELY.
   ELEMENT SPIRAL-1.1126 IS DISTORTING EXCESSIVELY.
   ELEMENT SPIRAL-1.1127 IS DISTORTING EXCESSIVELY.
   ELEMENT SPIRAL-1.1131 IS DISTORTING EXCESSIVELY.
   ELEMENT SPIRAL-1.1132 IS DISTORTING EXCESSIVELY.
   ELEMENT SPIRAL-1.1133 IS DISTORTING EXCESSIVELY.
   ELEMENT SPIRAL-1.1134 IS DISTORTING EXCESSIVELY.
   ELEMENT SPIRAL-1.1135 IS DISTORTING EXCESSIVELY.
   ELEMENT SPIRAL-1.1136 IS DISTORTING EXCESSIVELY.
   ELEMENT SPIRAL-1.1137 IS DISTORTING EXCESSIVELY.
   ELEMENT SPIRAL-1.1143 IS DISTORTING EXCESSIVELY.
   ELEMENT SPIRAL-1.1145 IS DISTORTING EXCESSIVELY.
   ELEMENT SPIRAL-1.1146 IS DISTORTING EXCESSIVELY.
   ELEMENT SPIRAL-1.1147 IS DISTORTING EXCESSIVELY.
   ELEMENT SPIRAL-1.1149 IS DISTORTING EXCESSIVELY.
   ELEMENT SPIRAL-1.1150 IS DISTORTING EXCESSIVELY.
   ELEMENT SPIRAL-1.1155 IS DISTORTING EXCESSIVELY.
   ELEMENT SPIRAL-1.1158 IS DISTORTING EXCESSIVELY.
   ELEMENT SPIRAL-1.1159 IS DISTORTING EXCESSIVELY.
   ELEMENT SPIRAL-1.1161 IS DISTORTING EXCESSIVELY.
   ELEMENT SPIRAL-1.1162 IS DISTORTING EXCESSIVELY.
   ELEMENT SPIRAL-1.1163 IS DISTORTING EXCESSIVELY.
   ELEMENT SPIRAL-1.1164 IS DISTORTING EXCESSIVELY.
   ELEMENT SPIRAL-1.1165 IS DISTORTING EXCESSIVELY.
   ELEMENT SPIRAL-1.1167 IS DISTORTING EXCESSIVELY.
   ELEMENT SPIRAL-1.1169 IS DISTORTING EXCESSIVELY.
   ELEMENT SPIRAL-1.1172 IS DISTORTING EXCESSIVELY.
   ELEMENT SPIRAL-1.1176 IS DISTORTING EXCESSIVELY.
   ELEMENT SPIRAL-1.1177 IS DISTORTING EXCESSIVELY.
   ELEMENT SPIRAL-1.1180 IS DISTORTING EXCESSIVELY.
   ELEMENT SPIRAL-1.1183 IS DISTORTING EXCESSIVELY.
   ELEMENT SPIRAL-1.1186 IS DISTORTING EXCESSIVELY.
   ELEMENT SPIRAL-1.1189 IS DISTORTING EXCESSIVELY.
   ELEMENT SPIRAL-1.1191 IS DISTORTING EXCESSIVELY.
   ELEMENT SPIRAL-1.1193 IS DISTORTING EXCESSIVELY.
   ELEMENT SPIRAL-1.1196 IS DISTORTING EXCESSIVELY.
   ELEMENT SPIRAL-1.1197 IS DISTORTING EXCESSIVELY.
   ELEMENT SPIRAL-1.1206 IS DISTORTING EXCESSIVELY.
   ELEMENT SPIRAL-1.1209 IS DISTORTING EXCESSIVELY.
   ELEMENT SPIRAL-1.1210 IS DISTORTING EXCESSIVELY.
   ELEMENT SPIRAL-1.1211 IS DISTORTING EXCESSIVELY.
   ELEMENT SPIRAL-1.1216 IS DISTORTING EXCESSIVELY.
   ELEMENT SPIRAL-1.1217 IS DISTORTING EXCESSIVELY.
   ELEMENT SPIRAL-1.1219 IS DISTORTING EXCESSIVELY.
   ELEMENT SPIRAL-1.1223 IS DISTORTING EXCESSIVELY.
   ELEMENT SPIRAL-1.1226 IS DISTORTING EXCESSIVELY.
   ELEMENT SPIRAL-1.1228 IS DISTORTING EXCESSIVELY.
   ELEMENT SPIRAL-1.1230 IS DISTORTING EXCESSIVELY.
   ELEMENT SPIRAL-1.1233 IS DISTORTING EXCESSIVELY.
   ELEMENT SPIRAL-1.1234 IS DISTORTING EXCESSIVELY.
   ELEMENT SPIRAL-1.1238 IS DISTORTING EXCESSIVELY.
   ELEMENT SPIRAL-1.1239 IS DISTORTING EXCESSIVELY.
   ELEMENT SPIRAL-1.1240 IS DISTORTING EXCESSIVELY.
   ELEMENT SPIRAL-1.1243 IS DISTORTING EXCESSIVELY.
   ELEMENT SPIRAL-1.1246 IS DISTORTING EXCESSIVELY.
   ELEMENT SPIRAL-1.1247 IS DISTORTING EXCESSIVELY.
   ELEMENT SPIRAL-1.1250 IS DISTORTING EXCESSIVELY.
   ELEMENT SPIRAL-1.1252 IS DISTORTING EXCESSIVELY.
   ELEMENT SPIRAL-1.1253 IS DISTORTING EXCESSIVELY.
   ELEMENT SPIRAL-1.1254 IS DISTORTING EXCESSIVELY.
   ELEMENT SPIRAL-1.1256 IS DISTORTING EXCESSIVELY.
   ELEMENT SPIRAL-1.1257 IS DISTORTING EXCESSIVELY.
   ELEMENT SPIRAL-1.1261 IS DISTORTING EXCESSIVELY.
   ELEMENT SPIRAL-1.1262 IS DISTORTING EXCESSIVELY.
   ELEMENT SPIRAL-1.1263 IS DISTORTING EXCESSIVELY.
   ELEMENT SPIRAL-1.1265 IS DISTORTING EXCESSIVELY.
   ELEMENT SPIRAL-1.1267 IS DISTORTING EXCESSIVELY.
   ELEMENT SPIRAL-1.1268 IS DISTORTING EXCESSIVELY.
   ELEMENT SPIRAL-1.1271 IS DISTORTING EXCESSIVELY.
   ELEMENT SPIRAL-1.1272 IS DISTORTING EXCESSIVELY.
   ELEMENT SPIRAL-1.1273 IS DISTORTING EXCESSIVELY.
   ELEMENT SPIRAL-1.1274 IS DISTORTING EXCESSIVELY.
   ELEMENT SPIRAL-1.1275 IS DISTORTING EXCESSIVELY.
   ELEMENT SPIRAL-1.1277 IS DISTORTING EXCESSIVELY.
   ELEMENT SPIRAL-1.1278 IS DISTORTING EXCESSIVELY.
   ELEMENT SPIRAL-1.1289 IS DISTORTING EXCESSIVELY.
   ELEMENT SPIRAL-1.1290 IS DISTORTING EXCESSIVELY.
   ELEMENT SPIRAL-1.1291 IS DISTORTING EXCESSIVELY.
   ELEMENT SPIRAL-1.1292 IS DISTORTING EXCESSIVELY.
   ELEMENT SPIRAL-1.1293 IS DISTORTING EXCESSIVELY.
   ELEMENT SPIRAL-1.1295 IS DISTORTING EXCESSIVELY.
   ELEMENT SPIRAL-1.1296 IS DISTORTING EXCESSIVELY.
   ELEMENT SPIRAL-1.1297 IS DISTORTING EXCESSIVELY.
   ELEMENT SPIRAL-1.1301 IS DISTORTING EXCESSIVELY.
   ELEMENT SPIRAL-1.1303 IS DISTORTING EXCESSIVELY.
   ELEMENT SPIRAL-1.1305 IS DISTORTING EXCESSIVELY.
   ELEMENT SPIRAL-1.1306 IS DISTORTING EXCESSIVELY.
   ELEMENT SPIRAL-1.1307 IS DISTORTING EXCESSIVELY.
   ELEMENT SPIRAL-1.1312 IS DISTORTING EXCESSIVELY.
   ELEMENT SPIRAL-1.1316 IS DISTORTING EXCESSIVELY.
   ELEMENT SPIRAL-1.1317 IS DISTORTING EXCESSIVELY.
   ELEMENT SPIRAL-1.1319 IS DISTORTING EXCESSIVELY.
   ELEMENT SPIRAL-1.1320 IS DISTORTING EXCESSIVELY.
   ELEMENT SPIRAL-1.1321 IS DISTORTING EXCESSIVELY.
   ELEMENT SPIRAL-1.1322 IS DISTORTING EXCESSIVELY.
   ELEMENT SPIRAL-1.1324 IS DISTORTING EXCESSIVELY.
   ELEMENT SPIRAL-1.1326 IS DISTORTING EXCESSIVELY.
   ELEMENT SPIRAL-1.1327 IS DISTORTING EXCESSIVELY.
   ELEMENT SPIRAL-1.1329 IS DISTORTING EXCESSIVELY.
   ELEMENT SPIRAL-1.1331 IS DISTORTING EXCESSIVELY.
   ELEMENT SPIRAL-1.1332 IS DISTORTING EXCESSIVELY.
   ELEMENT SPIRAL-1.1337 IS DISTORTING EXCESSIVELY.
   ELEMENT SPIRAL-1.1339 IS DISTORTING EXCESSIVELY.
   ELEMENT SPIRAL-1.1342 IS DISTORTING EXCESSIVELY.
   ELEMENT SPIRAL-1.1343 IS DISTORTING EXCESSIVELY.
   ELEMENT SPIRAL-1.1344 IS DISTORTING EXCESSIVELY.
   ELEMENT SPIRAL-1.1348 IS DISTORTING EXCESSIVELY.
   ELEMENT SPIRAL-1.1351 IS DISTORTING EXCESSIVELY.
   ELEMENT SPIRAL-1.1352 IS DISTORTING EXCESSIVELY.
   ELEMENT SPIRAL-1.1355 IS DISTORTING EXCESSIVELY.
   ELEMENT SPIRAL-1.1357 IS DISTORTING EXCESSIVELY.
   ELEMENT SPIRAL-1.1358 IS DISTORTING EXCESSIVELY.
   ELEMENT SPIRAL-1.1360 IS DISTORTING EXCESSIVELY.
   ELEMENT SPIRAL-1.1362 IS DISTORTING EXCESSIVELY.
   ELEMENT SPIRAL-1.1363 IS DISTORTING EXCESSIVELY.
   ELEMENT SPIRAL-1.1365 IS DISTORTING EXCESSIVELY.
   ELEMENT SPIRAL-1.1367 IS DISTORTING EXCESSIVELY.
   ELEMENT SPIRAL-1.1368 IS DISTORTING EXCESSIVELY.
   ELEMENT SPIRAL-1.1370 IS DISTORTING EXCESSIVELY.
   ELEMENT SPIRAL-1.1373 IS DISTORTING EXCESSIVELY.
   ELEMENT SPIRAL-1.1375 IS DISTORTING EXCESSIVELY.
   ELEMENT SPIRAL-1.1378 IS DISTORTING EXCESSIVELY.
   ELEMENT SPIRAL-1.1379 IS DISTORTING EXCESSIVELY.
   ELEMENT SPIRAL-1.1381 IS DISTORTING EXCESSIVELY.
   ELEMENT SPIRAL-1.1382 IS DISTORTING EXCESSIVELY.
   ELEMENT SPIRAL-1.1383 IS DISTORTING EXCESSIVELY.
   ELEMENT SPIRAL-1.1387 IS DISTORTING EXCESSIVELY.
   ELEMENT SPIRAL-1.1388 IS DISTORTING EXCESSIVELY.
   ELEMENT SPIRAL-1.1389 IS DISTORTING EXCESSIVELY.
   ELEMENT SPIRAL-1.1390 IS DISTORTING EXCESSIVELY.
   ELEMENT SPIRAL-1.1393 IS DISTORTING EXCESSIVELY.
   ELEMENT SPIRAL-1.1394 IS DISTORTING EXCESSIVELY.
   ELEMENT SPIRAL-1.1396 IS DISTORTING EXCESSIVELY.
   ELEMENT SPIRAL-1.1399 IS DISTORTING EXCESSIVELY.
   ELEMENT SPIRAL-1.1401 IS DISTORTING EXCESSIVELY.
   ELEMENT SPIRAL-1.1402 IS DISTORTING EXCESSIVELY.
   ELEMENT SPIRAL-1.1404 IS DISTORTING EXCESSIVELY.
   ELEMENT SPIRAL-1.1405 IS DISTORTING EXCESSIVELY.
   ELEMENT SPIRAL-1.1406 IS DISTORTING EXCESSIVELY.
   ELEMENT SPIRAL-1.1409 IS DISTORTING EXCESSIVELY.
   ELEMENT SPIRAL-1.1410 IS DISTORTING EXCESSIVELY.
   ELEMENT SPIRAL-1.1412 IS DISTORTING EXCESSIVELY.
   ELEMENT SPIRAL-1.1413 IS DISTORTING EXCESSIVELY.
   ELEMENT SPIRAL-1.1414 IS DISTORTING EXCESSIVELY.
   ELEMENT SPIRAL-1.1415 IS DISTORTING EXCESSIVELY.
   ELEMENT SPIRAL-1.1416 IS DISTORTING EXCESSIVELY.
   ELEMENT SPIRAL-1.1418 IS DISTORTING EXCESSIVELY.
   ELEMENT SPIRAL-1.1419 IS DISTORTING EXCESSIVELY.
   ELEMENT SPIRAL-1.1420 IS DISTORTING EXCESSIVELY.
   ELEMENT SPIRAL-1.1427 IS DISTORTING EXCESSIVELY.
   ELEMENT SPIRAL-1.1428 IS DISTORTING EXCESSIVELY.
   ELEMENT SPIRAL-1.1430 IS DISTORTING EXCESSIVELY.
   ELEMENT SPIRAL-1.1431 IS DISTORTING EXCESSIVELY.
   ELEMENT SPIRAL-1.1434 IS DISTORTING EXCESSIVELY.
   ELEMENT SPIRAL-1.1435 IS DISTORTING EXCESSIVELY.
   ELEMENT SPIRAL-1.1436 IS DISTORTING EXCESSIVELY.
   ELEMENT SPIRAL-1.1438 IS DISTORTING EXCESSIVELY.
   ELEMENT SPIRAL-1.1439 IS DISTORTING EXCESSIVELY.
   ELEMENT SPIRAL-1.1440 IS DISTORTING EXCESSIVELY.
   ELEMENT SPIRAL-1.1441 IS DISTORTING EXCESSIVELY.
   ELEMENT SPIRAL-1.1442 IS DISTORTING EXCESSIVELY.
   ELEMENT SPIRAL-1.1444 IS DISTORTING EXCESSIVELY.
   ELEMENT SPIRAL-1.1445 IS DISTORTING EXCESSIVELY.
   ELEMENT SPIRAL-1.1446 IS DISTORTING EXCESSIVELY.
   ELEMENT SPIRAL-1.1449 IS DISTORTING EXCESSIVELY.
   ELEMENT SPIRAL-1.1452 IS DISTORTING EXCESSIVELY.
   ELEMENT SPIRAL-1.1454 IS DISTORTING EXCESSIVELY.
   ELEMENT SPIRAL-1.1455 IS DISTORTING EXCESSIVELY.
   ELEMENT SPIRAL-1.1457 IS DISTORTING EXCESSIVELY.
   ELEMENT SPIRAL-1.1462 IS DISTORTING EXCESSIVELY.
   ELEMENT SPIRAL-1.1463 IS DISTORTING EXCESSIVELY.
   ELEMENT SPIRAL-1.1464 IS DISTORTING EXCESSIVELY.
   ELEMENT SPIRAL-1.1467 IS DISTORTING EXCESSIVELY.
   ELEMENT SPIRAL-1.1468 IS DISTORTING EXCESSIVELY.
   ELEMENT SPIRAL-1.1469 IS DISTORTING EXCESSIVELY.
   ELEMENT SPIRAL-1.1470 IS DISTORTING EXCESSIVELY.
   ELEMENT SPIRAL-1.1472 IS DISTORTING EXCESSIVELY.
   ELEMENT SPIRAL-1.1473 IS DISTORTING EXCESSIVELY.
   ELEMENT SPIRAL-1.1478 IS DISTORTING EXCESSIVELY.
   ELEMENT SPIRAL-1.1481 IS DISTORTING EXCESSIVELY.
   ELEMENT SPIRAL-1.1482 IS DISTORTING EXCESSIVELY.
   ELEMENT SPIRAL-1.1483 IS DISTORTING EXCESSIVELY.
   ELEMENT SPIRAL-1.1484 IS DISTORTING EXCESSIVELY.
   ELEMENT SPIRAL-1.1485 IS DISTORTING EXCESSIVELY.
   ELEMENT SPIRAL-1.1487 IS DISTORTING EXCESSIVELY.
   ELEMENT SPIRAL-1.1492 IS DISTORTING EXCESSIVELY.
   ELEMENT SPIRAL-1.1493 IS DISTORTING EXCESSIVELY.
   ELEMENT SPIRAL-1.1494 IS DISTORTING EXCESSIVELY.
   ELEMENT SPIRAL-1.1498 IS DISTORTING EXCESSIVELY.
   ELEMENT SPIRAL-1.1502 IS DISTORTING EXCESSIVELY.
   ELEMENT SPIRAL-1.1503 IS DISTORTING EXCESSIVELY.
   ELEMENT SPIRAL-1.1504 IS DISTORTING EXCESSIVELY.
   ELEMENT SPIRAL-1.1506 IS DISTORTING EXCESSIVELY.
   ELEMENT SPIRAL-1.1509 IS DISTORTING EXCESSIVELY.
   ELEMENT SPIRAL-1.1512 IS DISTORTING EXCESSIVELY.
   ELEMENT SPIRAL-1.1513 IS DISTORTING EXCESSIVELY.
   ELEMENT SPIRAL-1.1514 IS DISTORTING EXCESSIVELY.
   ELEMENT SPIRAL-1.1517 IS DISTORTING EXCESSIVELY.
   ELEMENT SPIRAL-1.1520 IS DISTORTING EXCESSIVELY.
   ELEMENT SPIRAL-1.1523 IS DISTORTING EXCESSIVELY.
   ELEMENT SPIRAL-1.1524 IS DISTORTING EXCESSIVELY.
   ELEMENT SPIRAL-1.1525 IS DISTORTING EXCESSIVELY.
   ELEMENT SPIRAL-1.1527 IS DISTORTING EXCESSIVELY.
   ELEMENT SPIRAL-1.1531 IS DISTORTING EXCESSIVELY.
   ELEMENT SPIRAL-1.1532 IS DISTORTING EXCESSIVELY.
   ELEMENT SPIRAL-1.1533 IS DISTORTING EXCESSIVELY.
   ELEMENT SPIRAL-1.1541 IS DISTORTING EXCESSIVELY.
   ELEMENT SPIRAL-1.1544 IS DISTORTING EXCESSIVELY.
   ELEMENT SPIRAL-1.1551 IS DISTORTING EXCESSIVELY.
   ELEMENT SPIRAL-1.1552 IS DISTORTING EXCESSIVELY.
   ELEMENT SPIRAL-1.1553 IS DISTORTING EXCESSIVELY.
   ELEMENT SPIRAL-1.1555 IS DISTORTING EXCESSIVELY.
   ELEMENT SPIRAL-1.1563 IS DISTORTING EXCESSIVELY.
   ELEMENT SPIRAL-1.1564 IS DISTORTING EXCESSIVELY.
   ELEMENT SPIRAL-1.1568 IS DISTORTING EXCESSIVELY.
   ELEMENT SPIRAL-1.1573 IS DISTORTING EXCESSIVELY.
   ELEMENT SPIRAL-1.1574 IS DISTORTING EXCESSIVELY.
   ELEMENT SPIRAL-1.1575 IS DISTORTING EXCESSIVELY.
   ELEMENT SPIRAL-1.1576 IS DISTORTING EXCESSIVELY.
   ELEMENT SPIRAL-1.1577 IS DISTORTING EXCESSIVELY.
   ELEMENT SPIRAL-1.1578 IS DISTORTING EXCESSIVELY.
   ELEMENT SPIRAL-1.1580 IS DISTORTING EXCESSIVELY.
   ELEMENT SPIRAL-1.1581 IS DISTORTING EXCESSIVELY.
   ELEMENT SPIRAL-1.1582 IS DISTORTING EXCESSIVELY.
   ELEMENT SPIRAL-1.1583 IS DISTORTING EXCESSIVELY.
   ELEMENT SPIRAL-1.1589 IS DISTORTING EXCESSIVELY.
   ELEMENT SPIRAL-1.1590 IS DISTORTING EXCESSIVELY.
   ELEMENT SPIRAL-1.1591 IS DISTORTING EXCESSIVELY.
   ELEMENT SPIRAL-1.1592 IS DISTORTING EXCESSIVELY.
   ELEMENT SPIRAL-1.1594 IS DISTORTING EXCESSIVELY.
   ELEMENT SPIRAL-1.1596 IS DISTORTING EXCESSIVELY.
   ELEMENT SPIRAL-1.1597 IS DISTORTING EXCESSIVELY.
   ELEMENT SPIRAL-1.1601 IS DISTORTING EXCESSIVELY.
   ELEMENT SPIRAL-1.1602 IS DISTORTING EXCESSIVELY.
   ELEMENT SPIRAL-1.1603 IS DISTORTING EXCESSIVELY.
   ELEMENT SPIRAL-1.1605 IS DISTORTING EXCESSIVELY.
   ELEMENT SPIRAL-1.1607 IS DISTORTING EXCESSIVELY.
   ELEMENT SPIRAL-1.1609 IS DISTORTING EXCESSIVELY.
   ELEMENT SPIRAL-1.1610 IS DISTORTING EXCESSIVELY.
   ELEMENT SPIRAL-1.1612 IS DISTORTING EXCESSIVELY.
   ELEMENT SPIRAL-1.1613 IS DISTORTING EXCESSIVELY.
   ELEMENT SPIRAL-1.1614 IS DISTORTING EXCESSIVELY.
   ELEMENT SPIRAL-1.1616 IS DISTORTING EXCESSIVELY.
   ELEMENT SPIRAL-1.1617 IS DISTORTING EXCESSIVELY.
   ELEMENT SPIRAL-1.1620 IS DISTORTING EXCESSIVELY.
   ELEMENT SPIRAL-1.1621 IS DISTORTING EXCESSIVELY.
   ELEMENT SPIRAL-1.1627 IS DISTORTING EXCESSIVELY.
   ELEMENT SPIRAL-1.1628 IS DISTORTING EXCESSIVELY.
   ELEMENT SPIRAL-1.1630 IS DISTORTING EXCESSIVELY.
   ELEMENT SPIRAL-1.1631 IS DISTORTING EXCESSIVELY.
   ELEMENT SPIRAL-1.1632 IS DISTORTING EXCESSIVELY.
   ELEMENT SPIRAL-1.1633 IS DISTORTING EXCESSIVELY.
   ELEMENT SPIRAL-1.1634 IS DISTORTING EXCESSIVELY.
   ELEMENT SPIRAL-1.1636 IS DISTORTING EXCESSIVELY.
   ELEMENT SPIRAL-1.1637 IS DISTORTING EXCESSIVELY.
   ELEMENT SPIRAL-1.1639 IS DISTORTING EXCESSIVELY.
   ELEMENT SPIRAL-1.1648 IS DISTORTING EXCESSIVELY.
   ELEMENT SPIRAL-1.1651 IS DISTORTING EXCESSIVELY.
   ELEMENT SPIRAL-1.1652 IS DISTORTING EXCESSIVELY.
   ELEMENT SPIRAL-1.1654 IS DISTORTING EXCESSIVELY.
   ELEMENT SPIRAL-1.1656 IS DISTORTING EXCESSIVELY.
   ELEMENT SPIRAL-1.1657 IS DISTORTING EXCESSIVELY.
   ELEMENT SPIRAL-1.1662 IS DISTORTING EXCESSIVELY.
   ELEMENT SPIRAL-1.1663 IS DISTORTING EXCESSIVELY.
   ELEMENT SPIRAL-1.1664 IS DISTORTING EXCESSIVELY.
   ELEMENT SPIRAL-1.1667 IS DISTORTING EXCESSIVELY.
   ELEMENT SPIRAL-1.1669 IS DISTORTING EXCESSIVELY.
   ELEMENT SPIRAL-1.1670 IS DISTORTING EXCESSIVELY.
   ELEMENT SPIRAL-1.1671 IS DISTORTING EXCESSIVELY.
   ELEMENT SPIRAL-1.1672 IS DISTORTING EXCESSIVELY.
   ELEMENT SPIRAL-1.1673 IS DISTORTING EXCESSIVELY.
   ELEMENT SPIRAL-1.1674 IS DISTORTING EXCESSIVELY.
   ELEMENT SPIRAL-1.1675 IS DISTORTING EXCESSIVELY.
   ELEMENT SPIRAL-1.1681 IS DISTORTING EXCESSIVELY.
   ELEMENT SPIRAL-1.1682 IS DISTORTING EXCESSIVELY.
   ELEMENT SPIRAL-1.1685 IS DISTORTING EXCESSIVELY.
   ELEMENT SPIRAL-1.1687 IS DISTORTING EXCESSIVELY.
   ELEMENT SPIRAL-1.1690 IS DISTORTING EXCESSIVELY.
   ELEMENT SPIRAL-1.1694 IS DISTORTING EXCESSIVELY.
   ELEMENT SPIRAL-1.1697 IS DISTORTING EXCESSIVELY.
   ELEMENT SPIRAL-1.1698 IS DISTORTING EXCESSIVELY.
   ELEMENT SPIRAL-1.1699 IS DISTORTING EXCESSIVELY.
   ELEMENT SPIRAL-1.1700 IS DISTORTING EXCESSIVELY.
   ELEMENT SPIRAL-1.1701 IS DISTORTING EXCESSIVELY.
   ELEMENT SPIRAL-1.1703 IS DISTORTING EXCESSIVELY.
   ELEMENT SPIRAL-1.1708 IS DISTORTING EXCESSIVELY.
   ELEMENT SPIRAL-1.1709 IS DISTORTING EXCESSIVELY.
   ELEMENT SPIRAL-1.1710 IS DISTORTING EXCESSIVELY.
   ELEMENT SPIRAL-1.1711 IS DISTORTING EXCESSIVELY.
   ELEMENT SPIRAL-1.1713 IS DISTORTING EXCESSIVELY.
   ELEMENT SPIRAL-1.1716 IS DISTORTING EXCESSIVELY.
   ELEMENT SPIRAL-1.1717 IS DISTORTING EXCESSIVELY.
   ELEMENT SPIRAL-1.1718 IS DISTORTING EXCESSIVELY.
   ELEMENT SPIRAL-1.1720 IS DISTORTING EXCESSIVELY.
   ELEMENT SPIRAL-1.1721 IS DISTORTING EXCESSIVELY.
   ELEMENT SPIRAL-1.1725 IS DISTORTING EXCESSIVELY.
   ELEMENT SPIRAL-1.1727 IS DISTORTING EXCESSIVELY.
   ELEMENT SPIRAL-1.1730 IS DISTORTING EXCESSIVELY.
   ELEMENT SPIRAL-1.1732 IS DISTORTING EXCESSIVELY.
   ELEMENT SPIRAL-1.1733 IS DISTORTING EXCESSIVELY.
   ELEMENT SPIRAL-1.1734 IS DISTORTING EXCESSIVELY.
   ELEMENT SPIRAL-1.1735 IS DISTORTING EXCESSIVELY.
   ELEMENT SPIRAL-1.1736 IS DISTORTING EXCESSIVELY.
   ELEMENT SPIRAL-1.1738 IS DISTORTING EXCESSIVELY.
   ELEMENT SPIRAL-1.1739 IS DISTORTING EXCESSIVELY.
   ELEMENT SPIRAL-1.1740 IS DISTORTING EXCESSIVELY.
   ELEMENT SPIRAL-1.1742 IS DISTORTING EXCESSIVELY.
   ELEMENT SPIRAL-1.1745 IS DISTORTING EXCESSIVELY.
   ELEMENT SPIRAL-1.1746 IS DISTORTING EXCESSIVELY.
   ELEMENT SPIRAL-1.1749 IS DISTORTING EXCESSIVELY.
   ELEMENT SPIRAL-1.1750 IS DISTORTING EXCESSIVELY.
   ELEMENT SPIRAL-1.1754 IS DISTORTING EXCESSIVELY.
   ELEMENT SPIRAL-1.1759 IS DISTORTING EXCESSIVELY.
   ELEMENT SPIRAL-1.1760 IS DISTORTING EXCESSIVELY.
   ELEMENT SPIRAL-1.1761 IS DISTORTING EXCESSIVELY.
   ELEMENT SPIRAL-1.1764 IS DISTORTING EXCESSIVELY.
   ELEMENT SPIRAL-1.1767 IS DISTORTING EXCESSIVELY.
   ELEMENT SPIRAL-1.1768 IS DISTORTING EXCESSIVELY.
   ELEMENT SPIRAL-1.1769 IS DISTORTING EXCESSIVELY.
   ELEMENT SPIRAL-1.1770 IS DISTORTING EXCESSIVELY.
   ELEMENT SPIRAL-1.1775 IS DISTORTING EXCESSIVELY.
   ELEMENT SPIRAL-1.1777 IS DISTORTING EXCESSIVELY.
   ELEMENT SPIRAL-1.1778 IS DISTORTING EXCESSIVELY.
   ELEMENT SPIRAL-1.1779 IS DISTORTING EXCESSIVELY.
   ELEMENT SPIRAL-1.1786 IS DISTORTING EXCESSIVELY.
   ELEMENT SPIRAL-1.1789 IS DISTORTING EXCESSIVELY.
   ELEMENT SPIRAL-1.1794 IS DISTORTING EXCESSIVELY.
   ELEMENT SPIRAL-1.1795 IS DISTORTING EXCESSIVELY.
   ELEMENT SPIRAL-1.1796 IS DISTORTING EXCESSIVELY.
   ELEMENT SPIRAL-1.1797 IS DISTORTING EXCESSIVELY.
   ELEMENT SPIRAL-1.1800 IS DISTORTING EXCESSIVELY.
   ELEMENT SPIRAL-1.1805 IS DISTORTING EXCESSIVELY.
   ELEMENT SPIRAL-1.1806 IS DISTORTING EXCESSIVELY.
   ELEMENT SPIRAL-1.1808 IS DISTORTING EXCESSIVELY.
   ELEMENT SPIRAL-1.1809 IS DISTORTING EXCESSIVELY.
   ELEMENT SPIRAL-1.1810 IS DISTORTING EXCESSIVELY.
   ELEMENT SPIRAL-1.1813 IS DISTORTING EXCESSIVELY.
   ELEMENT SPIRAL-1.1815 IS DISTORTING EXCESSIVELY.
   ELEMENT SPIRAL-1.1817 IS DISTORTING EXCESSIVELY.
   ELEMENT SPIRAL-1.1819 IS DISTORTING EXCESSIVELY.
   ELEMENT SPIRAL-1.1824 IS DISTORTING EXCESSIVELY.
   ELEMENT SPIRAL-1.1828 IS DISTORTING EXCESSIVELY.
   ELEMENT SPIRAL-1.1830 IS DISTORTING EXCESSIVELY.
   ELEMENT SPIRAL-1.1832 IS DISTORTING EXCESSIVELY.
   ELEMENT SPIRAL-1.1834 IS DISTORTING EXCESSIVELY.
   ELEMENT SPIRAL-1.1835 IS DISTORTING EXCESSIVELY.
   ELEMENT SPIRAL-1.1836 IS DISTORTING EXCESSIVELY.
   ELEMENT SPIRAL-1.1837 IS DISTORTING EXCESSIVELY.
   ELEMENT SPIRAL-1.1838 IS DISTORTING EXCESSIVELY.
   ELEMENT SPIRAL-1.1841 IS DISTORTING EXCESSIVELY.
   ELEMENT SPIRAL-1.1842 IS DISTORTING EXCESSIVELY.
   ELEMENT SPIRAL-1.1843 IS DISTORTING EXCESSIVELY.
   ELEMENT SPIRAL-1.1846 IS DISTORTING EXCESSIVELY.
   ELEMENT SPIRAL-1.1847 IS DISTORTING EXCESSIVELY.
   ELEMENT SPIRAL-1.1849 IS DISTORTING EXCESSIVELY.
   ELEMENT SPIRAL-1.1850 IS DISTORTING EXCESSIVELY.
   ELEMENT SPIRAL-1.1851 IS DISTORTING EXCESSIVELY.
   ELEMENT SPIRAL-1.1853 IS DISTORTING EXCESSIVELY.
   ELEMENT SPIRAL-1.1856 IS DISTORTING EXCESSIVELY.
   ELEMENT SPIRAL-1.1858 IS DISTORTING EXCESSIVELY.
   ELEMENT SPIRAL-1.1860 IS DISTORTING EXCESSIVELY.
   ELEMENT SPIRAL-1.1862 IS DISTORTING EXCESSIVELY.
   ELEMENT SPIRAL-1.1864 IS DISTORTING EXCESSIVELY.
   ELEMENT SPIRAL-1.1865 IS DISTORTING EXCESSIVELY.
   ELEMENT SPIRAL-1.1867 IS DISTORTING EXCESSIVELY.
   ELEMENT SPIRAL-1.1871 IS DISTORTING EXCESSIVELY.
   ELEMENT SPIRAL-1.1872 IS DISTORTING EXCESSIVELY.
   ELEMENT SPIRAL-1.1874 IS DISTORTING EXCESSIVELY.
   ELEMENT SPIRAL-1.1875 IS DISTORTING EXCESSIVELY.
   ELEMENT SPIRAL-1.1877 IS DISTORTING EXCESSIVELY.
   ELEMENT SPIRAL-1.1879 IS DISTORTING EXCESSIVELY.
   ELEMENT SPIRAL-1.1880 IS DISTORTING EXCESSIVELY.
   ELEMENT SPIRAL-1.1882 IS DISTORTING EXCESSIVELY.
   ELEMENT SPIRAL-1.1885 IS DISTORTING EXCESSIVELY.
   ELEMENT SPIRAL-1.1889 IS DISTORTING EXCESSIVELY.
   ELEMENT SPIRAL-1.1892 IS DISTORTING EXCESSIVELY.
   ELEMENT SPIRAL-1.1894 IS DISTORTING EXCESSIVELY.
   ELEMENT SPIRAL-1.1895 IS DISTORTING EXCESSIVELY.
   ELEMENT SPIRAL-1.1896 IS DISTORTING EXCESSIVELY.
   ELEMENT SPIRAL-1.1897 IS DISTORTING EXCESSIVELY.
   ELEMENT SPIRAL-1.1902 IS DISTORTING EXCESSIVELY.
   ELEMENT SPIRAL-1.1903 IS DISTORTING EXCESSIVELY.
   ELEMENT SPIRAL-1.1904 IS DISTORTING EXCESSIVELY.
   ELEMENT SPIRAL-1.1905 IS DISTORTING EXCESSIVELY.
   ELEMENT SPIRAL-1.1908 IS DISTORTING EXCESSIVELY.
   ELEMENT SPIRAL-1.1909 IS DISTORTING EXCESSIVELY.
   ELEMENT SPIRAL-1.1910 IS DISTORTING EXCESSIVELY.
   ELEMENT SPIRAL-1.1911 IS DISTORTING EXCESSIVELY.
   ELEMENT SPIRAL-1.1912 IS DISTORTING EXCESSIVELY.
   ELEMENT SPIRAL-1.1913 IS DISTORTING EXCESSIVELY.
   ELEMENT SPIRAL-1.1914 IS DISTORTING EXCESSIVELY.
   ELEMENT SPIRAL-1.1917 IS DISTORTING EXCESSIVELY.
   ELEMENT SPIRAL-1.1920 IS DISTORTING EXCESSIVELY.
   ELEMENT SPIRAL-1.1922 IS DISTORTING EXCESSIVELY.
   ELEMENT SPIRAL-1.1923 IS DISTORTING EXCESSIVELY.
   ELEMENT SPIRAL-1.1924 IS DISTORTING EXCESSIVELY.
   ELEMENT SPIRAL-1.1925 IS DISTORTING EXCESSIVELY.
   ELEMENT SPIRAL-1.1926 IS DISTORTING EXCESSIVELY.
   ELEMENT SPIRAL-1.1927 IS DISTORTING EXCESSIVELY.
   ELEMENT SPIRAL-1.1931 IS DISTORTING EXCESSIVELY.
   ELEMENT SPIRAL-1.1932 IS DISTORTING EXCESSIVELY.
   ELEMENT SPIRAL-1.1935 IS DISTORTING EXCESSIVELY.
   ELEMENT SPIRAL-1.1936 IS DISTORTING EXCESSIVELY.
   ELEMENT SPIRAL-1.1937 IS DISTORTING EXCESSIVELY.
   ELEMENT SPIRAL-1.1939 IS DISTORTING EXCESSIVELY.
   ELEMENT SPIRAL-1.1940 IS DISTORTING EXCESSIVELY.
   ELEMENT SPIRAL-1.1941 IS DISTORTING EXCESSIVELY.
   ELEMENT SPIRAL-1.1942 IS DISTORTING EXCESSIVELY.
   ELEMENT SPIRAL-1.1944 IS DISTORTING EXCESSIVELY.
   ELEMENT SPIRAL-1.1946 IS DISTORTING EXCESSIVELY.
   ELEMENT SPIRAL-1.1948 IS DISTORTING EXCESSIVELY.
   ELEMENT SPIRAL-1.1950 IS DISTORTING EXCESSIVELY.
   ELEMENT SPIRAL-1.1952 IS DISTORTING EXCESSIVELY.
   ELEMENT SPIRAL-1.1953 IS DISTORTING EXCESSIVELY.
   ELEMENT SPIRAL-1.1954 IS DISTORTING EXCESSIVELY.
   ELEMENT SPIRAL-1.1955 IS DISTORTING EXCESSIVELY.
   ELEMENT SPIRAL-1.1957 IS DISTORTING EXCESSIVELY.
   ELEMENT SPIRAL-1.1958 IS DISTORTING EXCESSIVELY.
   ELEMENT SPIRAL-1.1960 IS DISTORTING EXCESSIVELY.
   ELEMENT SPIRAL-1.1962 IS DISTORTING EXCESSIVELY.
   ELEMENT SPIRAL-1.1964 IS DISTORTING EXCESSIVELY.
   ELEMENT SPIRAL-1.1967 IS DISTORTING EXCESSIVELY.
   ELEMENT SPIRAL-1.1968 IS DISTORTING EXCESSIVELY.
   ELEMENT SPIRAL-1.1971 IS DISTORTING EXCESSIVELY.
   ELEMENT SPIRAL-1.1972 IS DISTORTING EXCESSIVELY.
   ELEMENT SPIRAL-1.1973 IS DISTORTING EXCESSIVELY.
   ELEMENT SPIRAL-1.1974 IS DISTORTING EXCESSIVELY.
   ELEMENT SPIRAL-1.1976 IS DISTORTING EXCESSIVELY.
   ELEMENT SPIRAL-1.1977 IS DISTORTING EXCESSIVELY.
   ELEMENT SPIRAL-1.1982 IS DISTORTING EXCESSIVELY.
   ELEMENT SPIRAL-1.1984 IS DISTORTING EXCESSIVELY.
   ELEMENT SPIRAL-1.1989 IS DISTORTING EXCESSIVELY.
   ELEMENT SPIRAL-1.1990 IS DISTORTING EXCESSIVELY.
   ELEMENT SPIRAL-1.1991 IS DISTORTING EXCESSIVELY.
   ELEMENT SPIRAL-1.1995 IS DISTORTING EXCESSIVELY.
   ELEMENT SPIRAL-1.1997 IS DISTORTING EXCESSIVELY.
   ELEMENT SPIRAL-1.1999 IS DISTORTING EXCESSIVELY.
   ELEMENT SPIRAL-1.2000 IS DISTORTING EXCESSIVELY.
   ELEMENT SPIRAL-1.2001 IS DISTORTING EXCESSIVELY.
   ELEMENT SPIRAL-1.2002 IS DISTORTING EXCESSIVELY.
   ELEMENT SPIRAL-1.2003 IS DISTORTING EXCESSIVELY.
   ELEMENT SPIRAL-1.2005 IS DISTORTING EXCESSIVELY.
   ELEMENT SPIRAL-1.2006 IS DISTORTING EXCESSIVELY.
   ELEMENT SPIRAL-1.2007 IS DISTORTING EXCESSIVELY.
   ELEMENT SPIRAL-1.2009 IS DISTORTING EXCESSIVELY.
   ELEMENT SPIRAL-1.2010 IS DISTORTING EXCESSIVELY.
   ELEMENT SPIRAL-1.2012 IS DISTORTING EXCESSIVELY.
   ELEMENT SPIRAL-1.2013 IS DISTORTING EXCESSIVELY.
   ELEMENT SPIRAL-1.2015 IS DISTORTING EXCESSIVELY.
   ELEMENT SPIRAL-1.2016 IS DISTORTING EXCESSIVELY.
   ELEMENT SPIRAL-1.2017 IS DISTORTING EXCESSIVELY.
   ELEMENT SPIRAL-1.2019 IS DISTORTING EXCESSIVELY.
   ELEMENT SPIRAL-1.2022 IS DISTORTING EXCESSIVELY.
   ELEMENT SPIRAL-1.2025 IS DISTORTING EXCESSIVELY.
   ELEMENT SPIRAL-1.2027 IS DISTORTING EXCESSIVELY.
   ELEMENT SPIRAL-1.2031 IS DISTORTING EXCESSIVELY.
   ELEMENT SPIRAL-1.2032 IS DISTORTING EXCESSIVELY.
   ELEMENT SPIRAL-1.2034 IS DISTORTING EXCESSIVELY.
   ELEMENT SPIRAL-1.2036 IS DISTORTING EXCESSIVELY.
   ELEMENT SPIRAL-1.2038 IS DISTORTING EXCESSIVELY.
   ELEMENT SPIRAL-1.2040 IS DISTORTING EXCESSIVELY.
   ELEMENT SPIRAL-1.2043 IS DISTORTING EXCESSIVELY.
   ELEMENT SPIRAL-1.2049 IS DISTORTING EXCESSIVELY.
   ELEMENT SPIRAL-1.2050 IS DISTORTING EXCESSIVELY.
   ELEMENT SPIRAL-1.2053 IS DISTORTING EXCESSIVELY.
   ELEMENT SPIRAL-1.2054 IS DISTORTING EXCESSIVELY.
   ELEMENT SPIRAL-1.2055 IS DISTORTING EXCESSIVELY.
   ELEMENT SPIRAL-1.2057 IS DISTORTING EXCESSIVELY.
   ELEMENT SPIRAL-1.2058 IS DISTORTING EXCESSIVELY.
   ELEMENT SPIRAL-1.2060 IS DISTORTING EXCESSIVELY.
   ELEMENT SPIRAL-1.2062 IS DISTORTING EXCESSIVELY.
   ELEMENT SPIRAL-1.2065 IS DISTORTING EXCESSIVELY.
   ELEMENT SPIRAL-1.2066 IS DISTORTING EXCESSIVELY.
   ELEMENT SPIRAL-1.2068 IS DISTORTING EXCESSIVELY.
   ELEMENT SPIRAL-1.2069 IS DISTORTING EXCESSIVELY.
   ELEMENT SPIRAL-1.2074 IS DISTORTING EXCESSIVELY.
   ELEMENT SPIRAL-1.2077 IS DISTORTING EXCESSIVELY.
   ELEMENT SPIRAL-1.2078 IS DISTORTING EXCESSIVELY.
   ELEMENT SPIRAL-1.2080 IS DISTORTING EXCESSIVELY.
   ELEMENT SPIRAL-1.2082 IS DISTORTING EXCESSIVELY.
   ELEMENT SPIRAL-1.2083 IS DISTORTING EXCESSIVELY.
   ELEMENT SPIRAL-1.2084 IS DISTORTING EXCESSIVELY.
   ELEMENT SPIRAL-1.2085 IS DISTORTING EXCESSIVELY.
   ELEMENT SPIRAL-1.2087 IS DISTORTING EXCESSIVELY.
   ELEMENT SPIRAL-1.2088 IS DISTORTING EXCESSIVELY.
   ELEMENT SPIRAL-1.2089 IS DISTORTING EXCESSIVELY.
   ELEMENT SPIRAL-1.2090 IS DISTORTING EXCESSIVELY.
   ELEMENT SPIRAL-1.2091 IS DISTORTING EXCESSIVELY.
   ELEMENT SPIRAL-1.2092 IS DISTORTING EXCESSIVELY.
   ELEMENT SPIRAL-1.2094 IS DISTORTING EXCESSIVELY.
   ELEMENT SPIRAL-1.2097 IS DISTORTING EXCESSIVELY.
   ELEMENT SPIRAL-1.2102 IS DISTORTING EXCESSIVELY.
   ELEMENT SPIRAL-1.2106 IS DISTORTING EXCESSIVELY.
   ELEMENT SPIRAL-1.2107 IS DISTORTING EXCESSIVELY.
   ELEMENT SPIRAL-1.2109 IS DISTORTING EXCESSIVELY.
   ELEMENT SPIRAL-1.2110 IS DISTORTING EXCESSIVELY.
   ELEMENT SPIRAL-1.2112 IS DISTORTING EXCESSIVELY.
   ELEMENT SPIRAL-1.2113 IS DISTORTING EXCESSIVELY.
   ELEMENT SPIRAL-1.2116 IS DISTORTING EXCESSIVELY.
   ELEMENT SPIRAL-1.2117 IS DISTORTING EXCESSIVELY.
   ELEMENT SPIRAL-1.2118 IS DISTORTING EXCESSIVELY.
   ELEMENT SPIRAL-1.2120 IS DISTORTING EXCESSIVELY.
   ELEMENT SPIRAL-1.2121 IS DISTORTING EXCESSIVELY.
   ELEMENT SPIRAL-1.2122 IS DISTORTING EXCESSIVELY.
   ELEMENT SPIRAL-1.2123 IS DISTORTING EXCESSIVELY.
   ELEMENT SPIRAL-1.2125 IS DISTORTING EXCESSIVELY.
   ELEMENT SPIRAL-1.2126 IS DISTORTING EXCESSIVELY.
   ELEMENT SPIRAL-1.2129 IS DISTORTING EXCESSIVELY.
   ELEMENT SPIRAL-1.2135 IS DISTORTING EXCESSIVELY.
   ELEMENT SPIRAL-1.2137 IS DISTORTING EXCESSIVELY.
   ELEMENT SPIRAL-1.2138 IS DISTORTING EXCESSIVELY.
   ELEMENT SPIRAL-1.2140 IS DISTORTING EXCESSIVELY.
   ELEMENT SPIRAL-1.2141 IS DISTORTING EXCESSIVELY.
   ELEMENT SPIRAL-1.2142 IS DISTORTING EXCESSIVELY.
   ELEMENT SPIRAL-1.2147 IS DISTORTING EXCESSIVELY.
   ELEMENT SPIRAL-1.2149 IS DISTORTING EXCESSIVELY.
   ELEMENT SPIRAL-1.2151 IS DISTORTING EXCESSIVELY.
   ELEMENT SPIRAL-1.2154 IS DISTORTING EXCESSIVELY.
   ELEMENT SPIRAL-1.2156 IS DISTORTING EXCESSIVELY.
   ELEMENT SPIRAL-1.2159 IS DISTORTING EXCESSIVELY.
   ELEMENT SPIRAL-1.2161 IS DISTORTING EXCESSIVELY.
   ELEMENT SPIRAL-1.2163 IS DISTORTING EXCESSIVELY.
   ELEMENT SPIRAL-1.2164 IS DISTORTING EXCESSIVELY.
   ELEMENT SPIRAL-1.2165 IS DISTORTING EXCESSIVELY.
   ELEMENT SPIRAL-1.2167 IS DISTORTING EXCESSIVELY.
   ELEMENT SPIRAL-1.2168 IS DISTORTING EXCESSIVELY.
   ELEMENT SPIRAL-1.2170 IS DISTORTING EXCESSIVELY.
   ELEMENT SPIRAL-1.2171 IS DISTORTING EXCESSIVELY.
   ELEMENT SPIRAL-1.2172 IS DISTORTING EXCESSIVELY.
   ELEMENT SPIRAL-1.2173 IS DISTORTING EXCESSIVELY.
   ELEMENT SPIRAL-1.2176 IS DISTORTING EXCESSIVELY.
   ELEMENT SPIRAL-1.2177 IS DISTORTING EXCESSIVELY.
   ELEMENT SPIRAL-1.2178 IS DISTORTING EXCESSIVELY.
   ELEMENT SPIRAL-1.2182 IS DISTORTING EXCESSIVELY.
   ELEMENT SPIRAL-1.2183 IS DISTORTING EXCESSIVELY.
   ELEMENT SPIRAL-1.2184 IS DISTORTING EXCESSIVELY.
   ELEMENT SPIRAL-1.2185 IS DISTORTING EXCESSIVELY.
   ELEMENT SPIRAL-1.2186 IS DISTORTING EXCESSIVELY.
   ELEMENT SPIRAL-1.2188 IS DISTORTING EXCESSIVELY.
   ELEMENT SPIRAL-1.2189 IS DISTORTING EXCESSIVELY.
   ELEMENT SPIRAL-1.2191 IS DISTORTING EXCESSIVELY.
   ELEMENT SPIRAL-1.2193 IS DISTORTING EXCESSIVELY.
   ELEMENT SPIRAL-1.2195 IS DISTORTING EXCESSIVELY.
   ELEMENT SPIRAL-1.2196 IS DISTORTING EXCESSIVELY.
   ELEMENT SPIRAL-1.2197 IS DISTORTING EXCESSIVELY.
   ELEMENT SPIRAL-1.2200 IS DISTORTING EXCESSIVELY.
   ELEMENT SPIRAL-1.2204 IS DISTORTING EXCESSIVELY.
   ELEMENT SPIRAL-1.2205 IS DISTORTING EXCESSIVELY.
   ELEMENT SPIRAL-1.2206 IS DISTORTING EXCESSIVELY.
   ELEMENT SPIRAL-1.2207 IS DISTORTING EXCESSIVELY.
   ELEMENT SPIRAL-1.2208 IS DISTORTING EXCESSIVELY.
   ELEMENT SPIRAL-1.2211 IS DISTORTING EXCESSIVELY.
   ELEMENT SPIRAL-1.2212 IS DISTORTING EXCESSIVELY.
   ELEMENT SPIRAL-1.2213 IS DISTORTING EXCESSIVELY.
   ELEMENT SPIRAL-1.2214 IS DISTORTING EXCESSIVELY.
   ELEMENT SPIRAL-1.2216 IS DISTORTING EXCESSIVELY.
   ELEMENT SPIRAL-1.2219 IS DISTORTING EXCESSIVELY.
   ELEMENT SPIRAL-1.2220 IS DISTORTING EXCESSIVELY.
   ELEMENT SPIRAL-1.2221 IS DISTORTING EXCESSIVELY.
   ELEMENT SPIRAL-1.2222 IS DISTORTING EXCESSIVELY.
   ELEMENT SPIRAL-1.2229 IS DISTORTING EXCESSIVELY.
   ELEMENT SPIRAL-1.2233 IS DISTORTING EXCESSIVELY.
   ELEMENT SPIRAL-1.2235 IS DISTORTING EXCESSIVELY.
   ELEMENT SPIRAL-1.2236 IS DISTORTING EXCESSIVELY.
   ELEMENT SPIRAL-1.2237 IS DISTORTING EXCESSIVELY.
   ELEMENT SPIRAL-1.2239 IS DISTORTING EXCESSIVELY.
   ELEMENT SPIRAL-1.2240 IS DISTORTING EXCESSIVELY.
   ELEMENT SPIRAL-1.2243 IS DISTORTING EXCESSIVELY.
   ELEMENT SPIRAL-1.2244 IS DISTORTING EXCESSIVELY.
   ELEMENT SPIRAL-1.2245 IS DISTORTING EXCESSIVELY.
   ELEMENT SPIRAL-1.2247 IS DISTORTING EXCESSIVELY.
   ELEMENT SPIRAL-1.2250 IS DISTORTING EXCESSIVELY.
   ELEMENT SPIRAL-1.2252 IS DISTORTING EXCESSIVELY.
   ELEMENT SPIRAL-1.2255 IS DISTORTING EXCESSIVELY.
   ELEMENT SPIRAL-1.2256 IS DISTORTING EXCESSIVELY.
   ELEMENT SPIRAL-1.2258 IS DISTORTING EXCESSIVELY.
   ELEMENT SPIRAL-1.2259 IS DISTORTING EXCESSIVELY.
   ELEMENT SPIRAL-1.2260 IS DISTORTING EXCESSIVELY.
   ELEMENT SPIRAL-1.2264 IS DISTORTING EXCESSIVELY.
   ELEMENT SPIRAL-1.2265 IS DISTORTING EXCESSIVELY.
   ELEMENT SPIRAL-1.2271 IS DISTORTING EXCESSIVELY.
   ELEMENT SPIRAL-1.2272 IS DISTORTING EXCESSIVELY.
   ELEMENT SPIRAL-1.2274 IS DISTORTING EXCESSIVELY.
   ELEMENT SPIRAL-1.2275 IS DISTORTING EXCESSIVELY.
   ELEMENT SPIRAL-1.2276 IS DISTORTING EXCESSIVELY.
   ELEMENT SPIRAL-1.2278 IS DISTORTING EXCESSIVELY.
   ELEMENT SPIRAL-1.2280 IS DISTORTING EXCESSIVELY.
   ELEMENT SPIRAL-1.2281 IS DISTORTING EXCESSIVELY.
   ELEMENT SPIRAL-1.2283 IS DISTORTING EXCESSIVELY.
   ELEMENT SPIRAL-1.2284 IS DISTORTING EXCESSIVELY.
   ELEMENT SPIRAL-1.2285 IS DISTORTING EXCESSIVELY.
   ELEMENT SPIRAL-1.2286 IS DISTORTING EXCESSIVELY.
   ELEMENT SPIRAL-1.2289 IS DISTORTING EXCESSIVELY.
   ELEMENT SPIRAL-1.2290 IS DISTORTING EXCESSIVELY.
   ELEMENT SPIRAL-1.2293 IS DISTORTING EXCESSIVELY.
   ELEMENT SPIRAL-1.2295 IS DISTORTING EXCESSIVELY.
   ELEMENT SPIRAL-1.2296 IS DISTORTING EXCESSIVELY.
   ELEMENT SPIRAL-1.2303 IS DISTORTING EXCESSIVELY.
   ELEMENT SPIRAL-1.2304 IS DISTORTING EXCESSIVELY.
   ELEMENT SPIRAL-1.2305 IS DISTORTING EXCESSIVELY.
   ELEMENT SPIRAL-1.2306 IS DISTORTING EXCESSIVELY.
   ELEMENT SPIRAL-1.2308 IS DISTORTING EXCESSIVELY.
   ELEMENT SPIRAL-1.2309 IS DISTORTING EXCESSIVELY.
   ELEMENT SPIRAL-1.2310 IS DISTORTING EXCESSIVELY.
   ELEMENT SPIRAL-1.2311 IS DISTORTING EXCESSIVELY.
   ELEMENT SPIRAL-1.2314 IS DISTORTING EXCESSIVELY.
   ELEMENT SPIRAL-1.2317 IS DISTORTING EXCESSIVELY.
   ELEMENT SPIRAL-1.2319 IS DISTORTING EXCESSIVELY.
   ELEMENT SPIRAL-1.2320 IS DISTORTING EXCESSIVELY.
   ELEMENT SPIRAL-1.2321 IS DISTORTING EXCESSIVELY.
   ELEMENT SPIRAL-1.2322 IS DISTORTING EXCESSIVELY.
   ELEMENT SPIRAL-1.2323 IS DISTORTING EXCESSIVELY.
   ELEMENT SPIRAL-1.2326 IS DISTORTING EXCESSIVELY.
   ELEMENT SPIRAL-1.2327 IS DISTORTING EXCESSIVELY.
   ELEMENT SPIRAL-1.2329 IS DISTORTING EXCESSIVELY.
   ELEMENT SPIRAL-1.2331 IS DISTORTING EXCESSIVELY.
   ELEMENT SPIRAL-1.2335 IS DISTORTING EXCESSIVELY.
   ELEMENT SPIRAL-1.2336 IS DISTORTING EXCESSIVELY.
   ELEMENT SPIRAL-1.2337 IS DISTORTING EXCESSIVELY.
   ELEMENT SPIRAL-1.2338 IS DISTORTING EXCESSIVELY.
   ELEMENT SPIRAL-1.2339 IS DISTORTING EXCESSIVELY.
   ELEMENT SPIRAL-1.2340 IS DISTORTING EXCESSIVELY.
   ELEMENT SPIRAL-1.2341 IS DISTORTING EXCESSIVELY.
   ELEMENT SPIRAL-1.2343 IS DISTORTING EXCESSIVELY.
   ELEMENT SPIRAL-1.2344 IS DISTORTING EXCESSIVELY.
   ELEMENT SPIRAL-1.2345 IS DISTORTING EXCESSIVELY.
   ELEMENT SPIRAL-1.2346 IS DISTORTING EXCESSIVELY.
   ELEMENT SPIRAL-1.2347 IS DISTORTING EXCESSIVELY.
   ELEMENT SPIRAL-1.2350 IS DISTORTING EXCESSIVELY.
   ELEMENT SPIRAL-1.2351 IS DISTORTING EXCESSIVELY.
   ELEMENT SPIRAL-1.2352 IS DISTORTING EXCESSIVELY.
   ELEMENT SPIRAL-1.2353 IS DISTORTING EXCESSIVELY.
   ELEMENT SPIRAL-1.2354 IS DISTORTING EXCESSIVELY.
   ELEMENT SPIRAL-1.2355 IS DISTORTING EXCESSIVELY.
   ELEMENT SPIRAL-1.2356 IS DISTORTING EXCESSIVELY.
   ELEMENT SPIRAL-1.2359 IS DISTORTING EXCESSIVELY.
   ELEMENT SPIRAL-1.2361 IS DISTORTING EXCESSIVELY.
   ELEMENT SPIRAL-1.2363 IS DISTORTING EXCESSIVELY.
   ELEMENT SPIRAL-1.2366 IS DISTORTING EXCESSIVELY.
   ELEMENT SPIRAL-1.2367 IS DISTORTING EXCESSIVELY.
   ELEMENT SPIRAL-1.2368 IS DISTORTING EXCESSIVELY.
   ELEMENT SPIRAL-1.2369 IS DISTORTING EXCESSIVELY.
   ELEMENT SPIRAL-1.2370 IS DISTORTING EXCESSIVELY.
   ELEMENT SPIRAL-1.2371 IS DISTORTING EXCESSIVELY.
   ELEMENT SPIRAL-1.2373 IS DISTORTING EXCESSIVELY.
   ELEMENT SPIRAL-1.2374 IS DISTORTING EXCESSIVELY.
   ELEMENT SPIRAL-1.2375 IS DISTORTING EXCESSIVELY.
   ELEMENT SPIRAL-1.2376 IS DISTORTING EXCESSIVELY.
   ELEMENT SPIRAL-1.2379 IS DISTORTING EXCESSIVELY.
   ELEMENT SPIRAL-1.2380 IS DISTORTING EXCESSIVELY.
   ELEMENT SPIRAL-1.2381 IS DISTORTING EXCESSIVELY.
   ELEMENT SPIRAL-1.2386 IS DISTORTING EXCESSIVELY.
   ELEMENT SPIRAL-1.2387 IS DISTORTING EXCESSIVELY.
   ELEMENT SPIRAL-1.2388 IS DISTORTING EXCESSIVELY.
   ELEMENT SPIRAL-1.2390 IS DISTORTING EXCESSIVELY.
   ELEMENT SPIRAL-1.2391 IS DISTORTING EXCESSIVELY.
   ELEMENT SPIRAL-1.2392 IS DISTORTING EXCESSIVELY.
   ELEMENT SPIRAL-1.2394 IS DISTORTING EXCESSIVELY.
   ELEMENT SPIRAL-1.2395 IS DISTORTING EXCESSIVELY.
   ELEMENT SPIRAL-1.2396 IS DISTORTING EXCESSIVELY.
   ELEMENT SPIRAL-1.2397 IS DISTORTING EXCESSIVELY.
   ELEMENT SPIRAL-1.2399 IS DISTORTING EXCESSIVELY.
   ELEMENT SPIRAL-1.2400 IS DISTORTING EXCESSIVELY.
   ELEMENT SPIRAL-1.2401 IS DISTORTING EXCESSIVELY.
   ELEMENT SPIRAL-1.2405 IS DISTORTING EXCESSIVELY.
   ELEMENT SPIRAL-1.2406 IS DISTORTING EXCESSIVELY.
   ELEMENT SPIRAL-1.2407 IS DISTORTING EXCESSIVELY.
   ELEMENT SPIRAL-1.2408 IS DISTORTING EXCESSIVELY.
   ELEMENT SPIRAL-1.2410 IS DISTORTING EXCESSIVELY.
   ELEMENT SPIRAL-1.2411 IS DISTORTING EXCESSIVELY.
   ELEMENT SPIRAL-1.2414 IS DISTORTING EXCESSIVELY.
   ELEMENT SPIRAL-1.2416 IS DISTORTING EXCESSIVELY.
   ELEMENT SPIRAL-1.2420 IS DISTORTING EXCESSIVELY.
   ELEMENT SPIRAL-1.2421 IS DISTORTING EXCESSIVELY.
   ELEMENT SPIRAL-1.2427 IS DISTORTING EXCESSIVELY.
   ELEMENT SPIRAL-1.2431 IS DISTORTING EXCESSIVELY.
   ELEMENT SPIRAL-1.2435 IS DISTORTING EXCESSIVELY.
   ELEMENT SPIRAL-1.2436 IS DISTORTING EXCESSIVELY.
   ELEMENT SPIRAL-1.2438 IS DISTORTING EXCESSIVELY.
   ELEMENT SPIRAL-1.2439 IS DISTORTING EXCESSIVELY.
   ELEMENT SPIRAL-1.2446 IS DISTORTING EXCESSIVELY.
   ELEMENT SPIRAL-1.2449 IS DISTORTING EXCESSIVELY.
   ELEMENT SPIRAL-1.2450 IS DISTORTING EXCESSIVELY.
   ELEMENT SPIRAL-1.2451 IS DISTORTING EXCESSIVELY.
   ELEMENT SPIRAL-1.2452 IS DISTORTING EXCESSIVELY.
   ELEMENT SPIRAL-1.2454 IS DISTORTING EXCESSIVELY.
   ELEMENT SPIRAL-1.2459 IS DISTORTING EXCESSIVELY.
   ELEMENT SPIRAL-1.2463 IS DISTORTING EXCESSIVELY.
   ELEMENT SPIRAL-1.2466 IS DISTORTING EXCESSIVELY.
   ELEMENT SPIRAL-1.2467 IS DISTORTING EXCESSIVELY.
   ELEMENT SPIRAL-1.2469 IS DISTORTING EXCESSIVELY.
   ELEMENT SPIRAL-1.2473 IS DISTORTING EXCESSIVELY.
   ELEMENT SPIRAL-1.2475 IS DISTORTING EXCESSIVELY.
   ELEMENT SPIRAL-1.2477 IS DISTORTING EXCESSIVELY.
   ELEMENT SPIRAL-1.2478 IS DISTORTING EXCESSIVELY.
   ELEMENT SPIRAL-1.2482 IS DISTORTING EXCESSIVELY.
   ELEMENT SPIRAL-1.2483 IS DISTORTING EXCESSIVELY.
   ELEMENT SPIRAL-1.2484 IS DISTORTING EXCESSIVELY.
   ELEMENT SPIRAL-1.2485 IS DISTORTING EXCESSIVELY.
   ELEMENT SPIRAL-1.2491 IS DISTORTING EXCESSIVELY.
   ELEMENT SPIRAL-1.2492 IS DISTORTING EXCESSIVELY.
   ELEMENT SPIRAL-1.2494 IS DISTORTING EXCESSIVELY.
   ELEMENT SPIRAL-1.2495 IS DISTORTING EXCESSIVELY.
   ELEMENT SPIRAL-1.2496 IS DISTORTING EXCESSIVELY.
   ELEMENT SPIRAL-1.2498 IS DISTORTING EXCESSIVELY.
   ELEMENT SPIRAL-1.2499 IS DISTORTING EXCESSIVELY.
   ELEMENT SPIRAL-1.2507 IS DISTORTING EXCESSIVELY.
   ELEMENT SPIRAL-1.2511 IS DISTORTING EXCESSIVELY.
   ELEMENT SPIRAL-1.2516 IS DISTORTING EXCESSIVELY.
   ELEMENT SPIRAL-1.2517 IS DISTORTING EXCESSIVELY.
   ELEMENT SPIRAL-1.2518 IS DISTORTING EXCESSIVELY.
   ELEMENT SPIRAL-1.2520 IS DISTORTING EXCESSIVELY.
   ELEMENT SPIRAL-1.2521 IS DISTORTING EXCESSIVELY.
   ELEMENT SPIRAL-1.2524 IS DISTORTING EXCESSIVELY.
   ELEMENT SPIRAL-1.2526 IS DISTORTING EXCESSIVELY.
   ELEMENT SPIRAL-1.2527 IS DISTORTING EXCESSIVELY.
   ELEMENT SPIRAL-1.2528 IS DISTORTING EXCESSIVELY.
   ELEMENT SPIRAL-1.2529 IS DISTORTING EXCESSIVELY.
   ELEMENT SPIRAL-1.2530 IS DISTORTING EXCESSIVELY.
   ELEMENT SPIRAL-1.2532 IS DISTORTING EXCESSIVELY.
   ELEMENT SPIRAL-1.2534 IS DISTORTING EXCESSIVELY.
   ELEMENT SPIRAL-1.2535 IS DISTORTING EXCESSIVELY.
   ELEMENT SPIRAL-1.2538 IS DISTORTING EXCESSIVELY.
   ELEMENT SPIRAL-1.2539 IS DISTORTING EXCESSIVELY.
   ELEMENT SPIRAL-1.2541 IS DISTORTING EXCESSIVELY.
   ELEMENT SPIRAL-1.2544 IS DISTORTING EXCESSIVELY.
   ELEMENT SPIRAL-1.2545 IS DISTORTING EXCESSIVELY.
   ELEMENT SPIRAL-1.2547 IS DISTORTING EXCESSIVELY.
   ELEMENT SPIRAL-1.2556 IS DISTORTING EXCESSIVELY.
   ELEMENT SPIRAL-1.2557 IS DISTORTING EXCESSIVELY.
   ELEMENT SPIRAL-1.2559 IS DISTORTING EXCESSIVELY.
   ELEMENT SPIRAL-1.2560 IS DISTORTING EXCESSIVELY.
   ELEMENT SPIRAL-1.2570 IS DISTORTING EXCESSIVELY.
   ELEMENT SPIRAL-1.2572 IS DISTORTING EXCESSIVELY.
   ELEMENT SPIRAL-1.2574 IS DISTORTING EXCESSIVELY.
   ELEMENT SPIRAL-1.2576 IS DISTORTING EXCESSIVELY.
   ELEMENT SPIRAL-1.2581 IS DISTORTING EXCESSIVELY.
   ELEMENT SPIRAL-1.2584 IS DISTORTING EXCESSIVELY.
   ELEMENT SPIRAL-1.2586 IS DISTORTING EXCESSIVELY.
   ELEMENT SPIRAL-1.2587 IS DISTORTING EXCESSIVELY.
   ELEMENT SPIRAL-1.2588 IS DISTORTING EXCESSIVELY.
   ELEMENT SPIRAL-1.2589 IS DISTORTING EXCESSIVELY.
   ELEMENT SPIRAL-1.2590 IS DISTORTING EXCESSIVELY.
   ELEMENT SPIRAL-1.2594 IS DISTORTING EXCESSIVELY.
   ELEMENT SPIRAL-1.2596 IS DISTORTING EXCESSIVELY.
   ELEMENT SPIRAL-1.2598 IS DISTORTING EXCESSIVELY.
   ELEMENT SPIRAL-1.2600 IS DISTORTING EXCESSIVELY.
   ELEMENT SPIRAL-1.2602 IS DISTORTING EXCESSIVELY.
   ELEMENT SPIRAL-1.2604 IS DISTORTING EXCESSIVELY.
   ELEMENT SPIRAL-1.2606 IS DISTORTING EXCESSIVELY.
   ELEMENT SPIRAL-1.2607 IS DISTORTING EXCESSIVELY.
   ELEMENT SPIRAL-1.2608 IS DISTORTING EXCESSIVELY.
   ELEMENT SPIRAL-1.2609 IS DISTORTING EXCESSIVELY.
   ELEMENT SPIRAL-1.2611 IS DISTORTING EXCESSIVELY.
   ELEMENT SPIRAL-1.2613 IS DISTORTING EXCESSIVELY.
   ELEMENT SPIRAL-1.2614 IS DISTORTING EXCESSIVELY.
   ELEMENT SPIRAL-1.2616 IS DISTORTING EXCESSIVELY.
   ELEMENT SPIRAL-1.2618 IS DISTORTING EXCESSIVELY.
   ELEMENT SPIRAL-1.2619 IS DISTORTING EXCESSIVELY.
   ELEMENT SPIRAL-1.2620 IS DISTORTING EXCESSIVELY.
   ELEMENT SPIRAL-1.2621 IS DISTORTING EXCESSIVELY.
   ELEMENT SPIRAL-1.2622 IS DISTORTING EXCESSIVELY.
   ELEMENT SPIRAL-1.2624 IS DISTORTING EXCESSIVELY.
   ELEMENT SPIRAL-1.2625 IS DISTORTING EXCESSIVELY.
   ELEMENT SPIRAL-1.2626 IS DISTORTING EXCESSIVELY.
   ELEMENT SPIRAL-1.2631 IS DISTORTING EXCESSIVELY.
   ELEMENT SPIRAL-1.2634 IS DISTORTING EXCESSIVELY.
   ELEMENT SPIRAL-1.2635 IS DISTORTING EXCESSIVELY.
   ELEMENT SPIRAL-1.2637 IS DISTORTING EXCESSIVELY.
   ELEMENT SPIRAL-1.2638 IS DISTORTING EXCESSIVELY.
   ELEMENT SPIRAL-1.2639 IS DISTORTING EXCESSIVELY.
   ELEMENT SPIRAL-1.2640 IS DISTORTING EXCESSIVELY.
   ELEMENT SPIRAL-1.2643 IS DISTORTING EXCESSIVELY.
   ELEMENT SPIRAL-1.2644 IS DISTORTING EXCESSIVELY.
   ELEMENT SPIRAL-1.2646 IS DISTORTING EXCESSIVELY.
   ELEMENT SPIRAL-1.2647 IS DISTORTING EXCESSIVELY.
   ELEMENT SPIRAL-1.2649 IS DISTORTING EXCESSIVELY.
   ELEMENT SPIRAL-1.2650 IS DISTORTING EXCESSIVELY.
   ELEMENT SPIRAL-1.2651 IS DISTORTING EXCESSIVELY.
   ELEMENT SPIRAL-1.2653 IS DISTORTING EXCESSIVELY.
   ELEMENT SPIRAL-1.2654 IS DISTORTING EXCESSIVELY.
   ELEMENT SPIRAL-1.2656 IS DISTORTING EXCESSIVELY.
   ELEMENT SPIRAL-1.2657 IS DISTORTING EXCESSIVELY.
   ELEMENT SPIRAL-1.2658 IS DISTORTING EXCESSIVELY.
   ELEMENT SPIRAL-1.2661 IS DISTORTING EXCESSIVELY.
   ELEMENT SPIRAL-1.2663 IS DISTORTING EXCESSIVELY.
   ELEMENT SPIRAL-1.2664 IS DISTORTING EXCESSIVELY.
   ELEMENT SPIRAL-1.2665 IS DISTORTING EXCESSIVELY.
   ELEMENT SPIRAL-1.2666 IS DISTORTING EXCESSIVELY.
   ELEMENT SPIRAL-1.2670 IS DISTORTING EXCESSIVELY.
   ELEMENT SPIRAL-1.2673 IS DISTORTING EXCESSIVELY.
   ELEMENT SPIRAL-1.2676 IS DISTORTING EXCESSIVELY.
   ELEMENT SPIRAL-1.2678 IS DISTORTING EXCESSIVELY.
   ELEMENT SPIRAL-1.2679 IS DISTORTING EXCESSIVELY.
   ELEMENT SPIRAL-1.2683 IS DISTORTING EXCESSIVELY.
   ELEMENT SPIRAL-1.2685 IS DISTORTING EXCESSIVELY.
   ELEMENT SPIRAL-1.2686 IS DISTORTING EXCESSIVELY.
   ELEMENT SPIRAL-1.2687 IS DISTORTING EXCESSIVELY.
   ELEMENT SPIRAL-1.2689 IS DISTORTING EXCESSIVELY.
   ELEMENT SPIRAL-1.2691 IS DISTORTING EXCESSIVELY.
   ELEMENT SPIRAL-1.2693 IS DISTORTING EXCESSIVELY.
   ELEMENT SPIRAL-1.2694 IS DISTORTING EXCESSIVELY.
   ELEMENT SPIRAL-1.2695 IS DISTORTING EXCESSIVELY.
   ELEMENT SPIRAL-1.2696 IS DISTORTING EXCESSIVELY.
   ELEMENT SPIRAL-1.2697 IS DISTORTING EXCESSIVELY.
   ELEMENT SPIRAL-1.2699 IS DISTORTING EXCESSIVELY.
   ELEMENT SPIRAL-1.2700 IS DISTORTING EXCESSIVELY.
   ELEMENT SPIRAL-1.2703 IS DISTORTING EXCESSIVELY.
   ELEMENT SPIRAL-1.2704 IS DISTORTING EXCESSIVELY.
   ELEMENT SPIRAL-1.2706 IS DISTORTING EXCESSIVELY.
   ELEMENT SPIRAL-1.2707 IS DISTORTING EXCESSIVELY.
   ELEMENT SPIRAL-1.2709 IS DISTORTING EXCESSIVELY.
   ELEMENT SPIRAL-1.2710 IS DISTORTING EXCESSIVELY.
   ELEMENT SPIRAL-1.2712 IS DISTORTING EXCESSIVELY.
   ELEMENT SPIRAL-1.2713 IS DISTORTING EXCESSIVELY.
   ELEMENT SPIRAL-1.2714 IS DISTORTING EXCESSIVELY.
   ELEMENT SPIRAL-1.2717 IS DISTORTING EXCESSIVELY.
   ELEMENT SPIRAL-1.2719 IS DISTORTING EXCESSIVELY.
   ELEMENT SPIRAL-1.2721 IS DISTORTING EXCESSIVELY.
   ELEMENT SPIRAL-1.2722 IS DISTORTING EXCESSIVELY.
   ELEMENT SPIRAL-1.2723 IS DISTORTING EXCESSIVELY.
   ELEMENT SPIRAL-1.2724 IS DISTORTING EXCESSIVELY.
   ELEMENT SPIRAL-1.2728 IS DISTORTING EXCESSIVELY.
   ELEMENT SPIRAL-1.2729 IS DISTORTING EXCESSIVELY.
   ELEMENT SPIRAL-1.2730 IS DISTORTING EXCESSIVELY.
[...]
  CORRESPONDING RESIDUAL FORCE       278.    
 LARGEST INCREMENT OF DISP.        -9.645E-03   AT NODE       3156   DOF  3
   INSTANCE: SPIRAL-1                                                                        
 LARGEST CORRECTION TO DISP.       -9.645E-03   AT NODE       3156   DOF  3
   INSTANCE: SPIRAL-1                                                                        
          FORCE     EQUILIBRIUM NOT ACHIEVED WITHIN TOLERANCE.
 
	SYMMETRIC PURE THREAD-BASED DIRECT SPARSE SOLVER RUNNING ON
 	1 HOST x 1 MPI RANK PER HOST x 1 THREAD PER RANK
        NUMBER OF EQUATIONS:  90774
        NUMBER OF RHS:        1
        NUMBER OF FLOPS:      6.037e+09
        SOLVER ELAPSED TIME:  220ms

               CONVERGENCE CHECKS FOR EQUILIBRIUM ITERATION     2


 AVERAGE FORCE                      0.283       TIME AVG. FORCE       0.283    
 LARGEST SCALED RESIDUAL FORCE      -10.7       AT NODE      11029   DOF  3
   INSTANCE: SPIRAL-1                                                                        
  CORRESPONDING RESIDUAL FORCE      -10.7    
 LARGEST INCREMENT OF DISP.        -9.457E-03   AT NODE        245   DOF  3
   INSTANCE: SPIRAL-1                                                                        
 LARGEST CORRECTION TO DISP.       -9.015E-04   AT NODE        245   DOF  1
   INSTANCE: SPIRAL-1                                                                        
          FORCE     EQUILIBRIUM NOT ACHIEVED WITHIN TOLERANCE.
 
	SYMMETRIC PURE THREAD-BASED DIRECT SPARSE SOLVER RUNNING ON
 	1 HOST x 1 MPI RANK PER HOST x 1 THREAD PER RANK
        NUMBER OF EQUATIONS:  90774
        NUMBER OF RHS:        1
        NUMBER OF FLOPS:      6.037e+09
        SOLVER ELAPSED TIME:  223ms
 

 ***WARNING: THE SYSTEM MATRIX HAS 14 NEGATIVE EIGENVALUES.
             EXPLANATIONS ARE SUGGESTED AFTER THE FIRST OCCURRENCE OF THIS MESSAGE.

               CONVERGENCE CHECKS FOR EQUILIBRIUM ITERATION     3


 AVERAGE FORCE                      1.577E-02   TIME AVG. FORCE       1.577E-02
 LARGEST SCALED RESIDUAL FORCE      -8.34       AT NODE       2576   DOF  3
   INSTANCE: SPIRAL-1                                                                        
  CORRESPONDING RESIDUAL FORCE      -8.34    
 LARGEST INCREMENT OF DISP.        -9.436E-03   AT NODE        245   DOF  3
   INSTANCE: SPIRAL-1                                                                        
 LARGEST CORRECTION TO DISP.       -3.204E-04   AT NODE        166   DOF  2
   INSTANCE: SPIRAL-1                                                                        
          FORCE     EQUILIBRIUM NOT ACHIEVED WITHIN TOLERANCE.
 
	SYMMETRIC PURE THREAD-BASED DIRECT SPARSE SOLVER RUNNING ON
 	1 HOST x 1 MPI RANK PER HOST x 1 THREAD PER RANK
        NUMBER OF EQUATIONS:  90774
        NUMBER OF RHS:        1
        NUMBER OF FLOPS:      6.037e+09
        SOLVER ELAPSED TIME:  221ms

               CONVERGENCE CHECKS FOR EQUILIBRIUM ITERATION     4


 AVERAGE FORCE                      4.624E-03   TIME AVG. FORCE       4.624E-03
 LARGEST SCALED RESIDUAL FORCE      -2.39       AT NODE       5668   DOF  3
   INSTANCE: SPIRAL-1                                                                        
  CORRESPONDING RESIDUAL FORCE      -2.39    
 LARGEST INCREMENT OF DISP.        -9.402E-03   AT NODE        245   DOF  3
   INSTANCE: SPIRAL-1                                                                        
 LARGEST CORRECTION TO DISP.        6.470E-05   AT NODE       8885   DOF  3
   INSTANCE: SPIRAL-1                                                                        
          FORCE     EQUILIBRIUM NOT ACHIEVED WITHIN TOLERANCE.
 
	SYMMETRIC PURE THREAD-BASED DIRECT SPARSE SOLVER RUNNING ON
 	1 HOST x 1 MPI RANK PER HOST x 1 THREAD PER RANK
        NUMBER OF EQUATIONS:  90774
        NUMBER OF RHS:        1
        NUMBER OF FLOPS:      6.037e+09
        SOLVER ELAPSED TIME:  227ms
 

 ***WARNING: THE SYSTEM MATRIX HAS 2 NEGATIVE EIGENVALUES.
             EXPLANATIONS ARE SUGGESTED AFTER THE FIRST OCCURRENCE OF THIS MESSAGE.

               CONVERGENCE CHECKS FOR EQUILIBRIUM ITERATION     5


 AVERAGE FORCE                      6.188E-03   TIME AVG. FORCE       6.188E-03
 LARGEST SCALED RESIDUAL FORCE     -0.987       AT NODE       2576   DOF  3
   INSTANCE: SPIRAL-1                                                                        
  CORRESPONDING RESIDUAL FORCE     -0.987    
 LARGEST INCREMENT OF DISP.        -9.222E-03   AT NODE        245   DOF  3
   INSTANCE: SPIRAL-1                                                                        
 LARGEST CORRECTION TO DISP.        2.196E-04   AT NODE         41   DOF  3
   INSTANCE: SPIRAL-1                                                                        
          FORCE     EQUILIBRIUM NOT ACHIEVED WITHIN TOLERANCE.
 
	SYMMETRIC PURE THREAD-BASED DIRECT SPARSE SOLVER RUNNING ON
 	1 HOST x 1 MPI RANK PER HOST x 1 THREAD PER RANK
        NUMBER OF EQUATIONS:  90774
        NUMBER OF RHS:        1
        NUMBER OF FLOPS:      6.037e+09
        SOLVER ELAPSED TIME:  216ms

               CONVERGENCE CHECKS FOR EQUILIBRIUM ITERATION     6


 AVERAGE FORCE                      3.326E-03   TIME AVG. FORCE       3.326E-03
 LARGEST SCALED RESIDUAL FORCE       1.65       AT NODE       2538   DOF  1
   INSTANCE: SPIRAL-1                                                                        
  CORRESPONDING RESIDUAL FORCE       1.65    
 LARGEST INCREMENT OF DISP.        -9.199E-03   AT NODE        245   DOF  3
   INSTANCE: SPIRAL-1                                                                        
 LARGEST CORRECTION TO DISP.        7.198E-05   AT NODE         41   DOF  3
   INSTANCE: SPIRAL-1                                                                        
          FORCE     EQUILIBRIUM NOT ACHIEVED WITHIN TOLERANCE.
 
	SYMMETRIC PURE THREAD-BASED DIRECT SPARSE SOLVER RUNNING ON
 	1 HOST x 1 MPI RANK PER HOST x 1 THREAD PER RANK
        NUMBER OF EQUATIONS:  90774
        NUMBER OF RHS:        1
        NUMBER OF FLOPS:      6.037e+09
        SOLVER ELAPSED TIME:  220ms

               CONVERGENCE CHECKS FOR EQUILIBRIUM ITERATION     7


 AVERAGE FORCE                      2.096E-02   TIME AVG. FORCE       2.096E-02
 LARGEST SCALED RESIDUAL FORCE      0.727       AT NODE      11029   DOF  3
   INSTANCE: SPIRAL-1                                                                        
  CORRESPONDING RESIDUAL FORCE      0.727    
 LARGEST INCREMENT OF DISP.        -8.715E-03   AT NODE        245   DOF  3
   INSTANCE: SPIRAL-1                                                                        
 LARGEST CORRECTION TO DISP.        4.837E-04   AT NODE        245   DOF  3
   INSTANCE: SPIRAL-1                                                                        
          FORCE     EQUILIBRIUM NOT ACHIEVED WITHIN TOLERANCE.
 
	SYMMETRIC PURE THREAD-BASED DIRECT SPARSE SOLVER RUNNING ON
 	1 HOST x 1 MPI RANK PER HOST x 1 THREAD PER RANK
        NUMBER OF EQUATIONS:  90774
        NUMBER OF RHS:        1
        NUMBER OF FLOPS:      6.037e+09
        SOLVER ELAPSED TIME:  219ms

               CONVERGENCE CHECKS FOR EQUILIBRIUM ITERATION     8


 AVERAGE FORCE                      1.704E-03   TIME AVG. FORCE       1.704E-03
 LARGEST SCALED RESIDUAL FORCE      -1.09       AT NODE       8906   DOF  3
   INSTANCE: SPIRAL-1                                                                        
  CORRESPONDING RESIDUAL FORCE      -1.09    
 LARGEST INCREMENT OF DISP.        -8.716E-03   AT NODE        245   DOF  3
   INSTANCE: SPIRAL-1                                                                        
 LARGEST CORRECTION TO DISP.        2.782E-05   AT NODE        195   DOF  2
   INSTANCE: SPIRAL-1                                                                        
          FORCE     EQUILIBRIUM NOT ACHIEVED WITHIN TOLERANCE.
 
	SYMMETRIC PURE THREAD-BASED DIRECT SPARSE SOLVER RUNNING ON
 	1 HOST x 1 MPI RANK PER HOST x 1 THREAD PER RANK
        NUMBER OF EQUATIONS:  90774
        NUMBER OF RHS:        1
        NUMBER OF FLOPS:      6.037e+09
        SOLVER ELAPSED TIME:  221ms
 

 ***WARNING: THE SYSTEM MATRIX HAS 1 NEGATIVE EIGENVALUES.
             EXPLANATIONS ARE SUGGESTED AFTER THE FIRST OCCURRENCE OF THIS MESSAGE.

               CONVERGENCE CHECKS FOR EQUILIBRIUM ITERATION     9


 AVERAGE FORCE                      1.845E-03   TIME AVG. FORCE       1.845E-03
 LARGEST SCALED RESIDUAL FORCE     -5.546E-02   AT NODE       5638   DOF  3
   INSTANCE: SPIRAL-1                                                                        
  CORRESPONDING RESIDUAL FORCE     -5.546E-02
 LARGEST INCREMENT OF DISP.        -8.832E-03   AT NODE        245   DOF  3
   INSTANCE: SPIRAL-1                                                                        
 LARGEST CORRECTION TO DISP.       -1.488E-04   AT NODE        169   DOF  3
   INSTANCE: SPIRAL-1                                                                        
          FORCE     EQUILIBRIUM NOT ACHIEVED WITHIN TOLERANCE.
 
	SYMMETRIC PURE THREAD-BASED DIRECT SPARSE SOLVER RUNNING ON
 	1 HOST x 1 MPI RANK PER HOST x 1 THREAD PER RANK
        NUMBER OF EQUATIONS:  90774
        NUMBER OF RHS:        1
        NUMBER OF FLOPS:      6.037e+09
        SOLVER ELAPSED TIME:  217ms

               CONVERGENCE CHECKS FOR EQUILIBRIUM ITERATION    10


 AVERAGE FORCE                      3.620E-04   TIME AVG. FORCE       3.620E-04
 LARGEST SCALED RESIDUAL FORCE      0.158       AT NODE       5664   DOF  3
   INSTANCE: SPIRAL-1                                                                        
  CORRESPONDING RESIDUAL FORCE      0.158    
 LARGEST INCREMENT OF DISP.        -8.829E-03   AT NODE        245   DOF  3
   INSTANCE: SPIRAL-1                                                                        
 LARGEST CORRECTION TO DISP.       -2.389E-05   AT NODE        301   DOF  3
   INSTANCE: SPIRAL-1                                                                        
          FORCE     EQUILIBRIUM NOT ACHIEVED WITHIN TOLERANCE.
 

 ***NOTE: THE RATE OF CONVERGENCE IS VERY SLOW. CONVERGENCE IS JUDGED UNLIKELY.


  INCREMENT     1 STARTS. ATTEMPT NUMBER  5, TIME INCREMENT  7.812E-03
 
	SYMMETRIC PURE THREAD-BASED DIRECT SPARSE SOLVER RUNNING ON
 	1 HOST x 1 MPI RANK PER HOST x 1 THREAD PER RANK
        NUMBER OF EQUATIONS:  90774
        NUMBER OF RHS:        1
        NUMBER OF FLOPS:      6.037e+09
        SOLVER ELAPSED TIME:  218ms

               CONVERGENCE CHECKS FOR EQUILIBRIUM ITERATION     1


 AVERAGE FORCE                       1.91       TIME AVG. FORCE        1.91    
 LARGEST SCALED RESIDUAL FORCE       68.6       AT NODE      11029   DOF  3
   INSTANCE: SPIRAL-1                                                                        
  CORRESPONDING RESIDUAL FORCE       68.6    
 LARGEST INCREMENT OF DISP.        -4.771E-03   AT NODE       3156   DOF  3
   INSTANCE: SPIRAL-1                                                                        
 LARGEST CORRECTION TO DISP.       -4.771E-03   AT NODE       3156   DOF  3
   INSTANCE: SPIRAL-1                                                                        
          FORCE     EQUILIBRIUM NOT ACHIEVED WITHIN TOLERANCE.
 
	SYMMETRIC PURE THREAD-BASED DIRECT SPARSE SOLVER RUNNING ON
 	1 HOST x 1 MPI RANK PER HOST x 1 THREAD PER RANK
        NUMBER OF EQUATIONS:  90774
        NUMBER OF RHS:        1
        NUMBER OF FLOPS:      6.037e+09
        SOLVER ELAPSED TIME:  219ms

               CONVERGENCE CHECKS FOR EQUILIBRIUM ITERATION     2


 AVERAGE FORCE                      1.872E-02   TIME AVG. FORCE       1.872E-02
 LARGEST SCALED RESIDUAL FORCE     -0.644       AT NODE      11029   DOF  3
   INSTANCE: SPIRAL-1                                                                        
  CORRESPONDING RESIDUAL FORCE     -0.644    
 LARGEST INCREMENT OF DISP.        -4.748E-03   AT NODE        245   DOF  3
   INSTANCE: SPIRAL-1                                                                        
 LARGEST CORRECTION TO DISP.       -2.157E-04   AT NODE        245   DOF  1
   INSTANCE: SPIRAL-1                                                                        
          FORCE     EQUILIBRIUM NOT ACHIEVED WITHIN TOLERANCE.
 
	SYMMETRIC PURE THREAD-BASED DIRECT SPARSE SOLVER RUNNING ON
 	1 HOST x 1 MPI RANK PER HOST x 1 THREAD PER RANK
        NUMBER OF EQUATIONS:  90774
        NUMBER OF RHS:        1
        NUMBER OF FLOPS:      6.037e+09
        SOLVER ELAPSED TIME:  221ms
 

 ***WARNING: THE SYSTEM MATRIX HAS 3 NEGATIVE EIGENVALUES.
             EXPLANATIONS ARE SUGGESTED AFTER THE FIRST OCCURRENCE OF THIS MESSAGE.

               CONVERGENCE CHECKS FOR EQUILIBRIUM ITERATION     3


 AVERAGE FORCE                      4.261E-04   TIME AVG. FORCE       4.261E-04
 LARGEST SCALED RESIDUAL FORCE     -8.549E-02   AT NODE       5090   DOF  1
   INSTANCE: SPIRAL-1                                                                        
  CORRESPONDING RESIDUAL FORCE     -8.549E-02
 LARGEST INCREMENT OF DISP.        -4.751E-03   AT NODE        245   DOF  3
   INSTANCE: SPIRAL-1                                                                        
 LARGEST CORRECTION TO DISP.       -4.598E-05   AT NODE       2388   DOF  2
   INSTANCE: SPIRAL-1                                                                        
          FORCE     EQUILIBRIUM NOT ACHIEVED WITHIN TOLERANCE.
 
	SYMMETRIC PURE THREAD-BASED DIRECT SPARSE SOLVER RUNNING ON
 	1 HOST x 1 MPI RANK PER HOST x 1 THREAD PER RANK
        NUMBER OF EQUATIONS:  90774
        NUMBER OF RHS:        1
        NUMBER OF FLOPS:      6.037e+09
        SOLVER ELAPSED TIME:  222ms

               CONVERGENCE CHECKS FOR EQUILIBRIUM ITERATION     4


 AVERAGE FORCE                      1.240E-04   TIME AVG. FORCE       1.240E-04
 LARGEST SCALED RESIDUAL FORCE     -2.568E-03   AT NODE       6894   DOF  3
   INSTANCE: SPIRAL-1                                                                        
  CORRESPONDING RESIDUAL FORCE     -2.568E-03
 LARGEST INCREMENT OF DISP.        -4.747E-03   AT NODE        245   DOF  3
   INSTANCE: SPIRAL-1                                                                        
 LARGEST CORRECTION TO DISP.        1.983E-05   AT NODE         99   DOF  3
   INSTANCE: SPIRAL-1                                                                        
          FORCE     EQUILIBRIUM NOT ACHIEVED WITHIN TOLERANCE.
 
	SYMMETRIC PURE THREAD-BASED DIRECT SPARSE SOLVER RUNNING ON
 	1 HOST x 1 MPI RANK PER HOST x 1 THREAD PER RANK
        NUMBER OF EQUATIONS:  90774
        NUMBER OF RHS:        1
        NUMBER OF FLOPS:      6.037e+09
        SOLVER ELAPSED TIME:  219ms

               CONVERGENCE CHECKS FOR EQUILIBRIUM ITERATION     5


 AVERAGE FORCE                      1.102E-04   TIME AVG. FORCE       1.102E-04
 LARGEST SCALED RESIDUAL FORCE      4.297E-04   AT NODE      17271   DOF  3
   INSTANCE: SPIRAL-1                                                                        
  CORRESPONDING RESIDUAL FORCE      4.297E-04
 LARGEST INCREMENT OF DISP.        -4.739E-03   AT NODE        245   DOF  3
   INSTANCE: SPIRAL-1                                                                        
 LARGEST CORRECTION TO DISP.        8.514E-06   AT NODE        245   DOF  3
   INSTANCE: SPIRAL-1                                                                        
          FORCE     EQUILIBRIUM NOT ACHIEVED WITHIN TOLERANCE.
 
	SYMMETRIC PURE THREAD-BASED DIRECT SPARSE SOLVER RUNNING ON
 	1 HOST x 1 MPI RANK PER HOST x 1 THREAD PER RANK
        NUMBER OF EQUATIONS:  90774
        NUMBER OF RHS:        1
        NUMBER OF FLOPS:      6.037e+09
        SOLVER ELAPSED TIME:  220ms

               CONVERGENCE CHECKS FOR EQUILIBRIUM ITERATION     6


 AVERAGE FORCE                      1.108E-04   TIME AVG. FORCE       1.108E-04
 LARGEST SCALED RESIDUAL FORCE      3.017E-04   AT NODE      11029   DOF  3
   INSTANCE: SPIRAL-1                                                                        
  CORRESPONDING RESIDUAL FORCE      3.017E-04
 LARGEST INCREMENT OF DISP.        -4.729E-03   AT NODE        245   DOF  3
   INSTANCE: SPIRAL-1                                                                        
 LARGEST CORRECTION TO DISP.        1.005E-05   AT NODE        245   DOF  3
   INSTANCE: SPIRAL-1                                                                        
          FORCE     EQUILIBRIUM NOT ACHIEVED WITHIN TOLERANCE.
 
	SYMMETRIC PURE THREAD-BASED DIRECT SPARSE SOLVER RUNNING ON
 	1 HOST x 1 MPI RANK PER HOST x 1 THREAD PER RANK
        NUMBER OF EQUATIONS:  90774
        NUMBER OF RHS:        1
        NUMBER OF FLOPS:      6.037e+09
        SOLVER ELAPSED TIME:  220ms

               CONVERGENCE CHECKS FOR EQUILIBRIUM ITERATION     7


 AVERAGE FORCE                      1.090E-04   TIME AVG. FORCE       1.090E-04
 LARGEST SCALED RESIDUAL FORCE     -1.361E-04   AT NODE       9541   DOF  3
   INSTANCE: SPIRAL-1                                                                        
  CORRESPONDING RESIDUAL FORCE     -1.361E-04
 LARGEST INCREMENT OF DISP.        -4.722E-03   AT NODE        245   DOF  3
   INSTANCE: SPIRAL-1                                                                        
 LARGEST CORRECTION TO DISP.        6.701E-06   AT NODE        245   DOF  3
   INSTANCE: SPIRAL-1                                                                        
          FORCE     EQUILIBRIUM NOT ACHIEVED WITHIN TOLERANCE.
 
	SYMMETRIC PURE THREAD-BASED DIRECT SPARSE SOLVER RUNNING ON
 	1 HOST x 1 MPI RANK PER HOST x 1 THREAD PER RANK
        NUMBER OF EQUATIONS:  90774
        NUMBER OF RHS:        1
        NUMBER OF FLOPS:      6.037e+09
        SOLVER ELAPSED TIME:  219ms

               CONVERGENCE CHECKS FOR EQUILIBRIUM ITERATION     8


 AVERAGE FORCE                      1.112E-04   TIME AVG. FORCE       1.112E-04
 LARGEST SCALED RESIDUAL FORCE      3.739E-04   AT NODE      11029   DOF  3
   INSTANCE: SPIRAL-1                                                                        
  CORRESPONDING RESIDUAL FORCE      3.739E-04
 LARGEST INCREMENT OF DISP.        -4.711E-03   AT NODE        245   DOF  3
   INSTANCE: SPIRAL-1                                                                        
 LARGEST CORRECTION TO DISP.        1.109E-05   AT NODE        245   DOF  3
   INSTANCE: SPIRAL-1                                                                        
          FORCE     EQUILIBRIUM NOT ACHIEVED WITHIN TOLERANCE.
 

 ***NOTE: THE SOLUTION APPEARS TO BE DIVERGING. CONVERGENCE IS JUDGED UNLIKELY.
 

 ***ERROR: TOO MANY ATTEMPTS MADE FOR THIS INCREMENT



     ANALYSIS SUMMARY:
     TOTAL OF          1  INCREMENTS
                       5  CUTBACKS IN AUTOMATIC INCREMENTATION
                      24  ITERATIONS INCLUDING CONTACT ITERATIONS IF PRESENT
                      24  PASSES THROUGH THE EQUATION SOLVER OF WHICH 
                      24  INVOLVE MATRIX DECOMPOSITION, INCLUDING
                       0  DECOMPOSITION(S) OF THE MASS MATRIX
                       1  REORDERING OF EQUATIONS TO MINIMIZE WAVEFRONT
                       0  ADDITIONAL RESIDUAL EVALUATIONS FOR LINE SEARCHES
                       0  ADDITIONAL OPERATOR EVALUATIONS FOR LINE SEARCHES
                       4  WARNING MESSAGES DURING USER INPUT PROCESSING
                      11  WARNING MESSAGES DURING ANALYSIS
                       0  ANALYSIS WARNINGS ARE NUMERICAL PROBLEM MESSAGES
                       8  ANALYSIS WARNINGS ARE NEGATIVE EIGENVALUE MESSAGES
                       1  ERROR MESSAGES



     JOB TIME SUMMARY
       USER TIME (SEC)      =      16.    
       SYSTEM TIME (SEC)    =      5.6    
       TOTAL CPU TIME (SEC) =      22.    
       WALLCLOCK TIME (SEC) =           16
       MEMORY PEAK (GB)     =            0
