1

   Abaqus 2025                                  Date 22-Feb-2026   Time 02:54:02
   For use by UNIVERSITAET STUTTGART under license from Dassault Systemes or its subsidiary.

                                                                                 
                                                                                 
 STEP    1     INCREMENT     1     STEP TIME    0.00    


                        S T E P       1     S T A T I C   A N A L Y S I S


                                                                                          

     AUTOMATIC TIME CONTROL WITH -
          A SUGGESTED INITIAL TIME INCREMENT OF                 1.00    
          AND A TOTAL TIME PERIOD OF                            1.00    
          THE MINIMUM TIME INCREMENT ALLOWED IS                1.000E-05
          THE MAXIMUM TIME INCREMENT ALLOWED IS                 1.00    

     LINEAR EQUATION SOLVER TYPE         DIRECT SPARSE

 CONVERGENCE TOLERANCE PARAMETERS FOR FORCE    
     CRITERION FOR RESIDUAL FORCE     FOR A NONLINEAR PROBLEM          5.000E-03
     CRITERION FOR DISP.    CORRECTION IN A NONLINEAR PROBLEM          1.000E-02
     INITIAL VALUE OF TIME AVERAGE FORCE                               1.000E-02
     AVERAGE FORCE     IS TIME AVERAGE FORCE    
     ALTERNATE CRIT. FOR RESIDUAL FORCE     FOR A NONLINEAR PROBLEM    2.000E-02
     CRITERION FOR ZERO FORCE     RELATIVE TO TIME AVRG. FORCE         1.000E-05
     CRITERION FOR RESIDUAL FORCE     WHEN THERE IS ZERO FLUX          1.000E-05
     CRITERION FOR DISP.    CORRECTION WHEN THERE IS ZERO FLUX         1.000E-03
     CRITERION FOR RESIDUAL FORCE     FOR A LINEAR INCREMENT           1.000E-08
     FIELD CONVERSION RATIO                                             1.00    
     CRITERION FOR ZERO FORCE     REL. TO TIME AVRG. MAX. FORCE        1.000E-05
     CRITERION FOR ZERO DISP.    RELATIVE TO CHARACTERISTIC LENGTH     1.000E-08

     VOLUMETRIC STRAIN COMPATIBILITY TOLERANCE FOR HYBRID SOLIDS       1.000E-05
     AXIAL STRAIN COMPATIBILITY TOLERANCE FOR HYBRID BEAMS             1.000E-05
     TRANS. SHEAR STRAIN COMPATIBILITY TOLERANCE FOR HYBRID BEAMS      1.000E-05
     SOFT CONTACT CONSTRAINT COMPATIBILITY TOLERANCE FOR P>P0          5.000E-03
     SOFT CONTACT CONSTRAINT COMPATIBILITY TOLERANCE FOR P=0.0         0.100    
     CONTACT FORCE ERROR TOLERANCE FOR CONVERT SDI=YES                 1.00    
     DISPLACEMENT COMPATIBILITY TOLERANCE FOR DCOUP ELEMENTS           1.000E-05
     ROTATION COMPATIBILITY TOLERANCE FOR DCOUP ELEMENTS               1.000E-05

 EQUILIBRIUM WILL BE CHECKED FOR SEVERE DISCONTINUITY ITERATIONS

 TIME INCREMENTATION CONTROL PARAMETERS:
     FIRST EQUILIBRIUM ITERATION FOR CONSECUTIVE DIVERGENCE CHECK              4
     EQUILIBRIUM ITERATION AT WHICH LOG. CONVERGENCE RATE CHECK BEGINS         8
     EQUILIBRIUM ITERATION AFTER WHICH ALTERNATE RESIDUAL IS USED              9
     MAXIMUM EQUILIBRIUM ITERATIONS ALLOWED                                   16
     EQUILIBRIUM ITERATION COUNT FOR CUT-BACK IN NEXT INCREMENT               10
     MAXIMUM EQUILIB. ITERS IN TWO INCREMENTS FOR TIME INCREMENT INCREASE      4
     MAXIMUM ITERATIONS FOR SEVERE DISCONTINUITIES                            50
     MAXIMUM ATTEMPTS ALLOWED IN AN INCREMENT                                  5
     MAXIMUM DISCON. ITERS IN TWO INCREMENTS FOR TIME INCREMENT INCREASE      50
     MAXIMUM CONTACT AUGMENTATIONS FOR *SURFACE BEHAVIOR,AUGMENTED LAGRANGE   50
     CUT-BACK FACTOR AFTER DIVERGENCE                                 0.2500    
     CUT-BACK FACTOR FOR TOO SLOW CONVERGENCE                         0.5000    
     CUT-BACK FACTOR AFTER TOO MANY EQUILIBRIUM ITERATIONS            0.7500    
     CUT-BACK FACTOR AFTER TOO MANY SEVERE DISCONTINUITY ITERATIONS   0.2500    
     CUT-BACK FACTOR AFTER PROBLEMS IN ELEMENT ASSEMBLY               0.2500    
     INCREASE FACTOR AFTER TWO INCREMENTS THAT CONVERGE QUICKLY        1.500    
     MAX. TIME INCREMENT INCREASE FACTOR ALLOWED                       1.500    
     MAX. TIME INCREMENT INCREASE FACTOR ALLOWED (DYNAMICS)            1.250    
     MAX. TIME INCREMENT INCREASE FACTOR ALLOWED (DIFFUSION)           2.000    
     MINIMUM TIME INCREMENT RATIO FOR EXTRAPOLATION TO OCCUR          0.1000    
     MAX. RATIO OF TIME INCREMENT TO STABILITY LIMIT                   1.000    
     FRACTION OF STABILITY LIMIT FOR NEW TIME INCREMENT               0.9500    
     TIME INCREMENT INCREASE FACTOR BEFORE A TIME POINT                1.000    
     GLOBAL STABILIZATION CONTROL IS NOT USED

          PRINT OF INCREMENT NUMBER, TIME, ETC., EVERY    1  INCREMENTS

     THE MAXIMUM NUMBER OF INCREMENTS IN THIS STEP IS                     100

          LARGE DISPLACEMENT THEORY WILL BE USED

     LINEAR EXTRAPOLATION WILL BE USED

     CHARACTERISTIC ELEMENT LENGTH     8.268E-04

     DETAILS REGARDING ACTUAL SOLUTION WAVEFRONT REQUESTED

     DETAILED OUTPUT OF DIAGNOSTICS TO DATABASE REQUESTED

     PRINT OF INCREMENT NUMBER, TIME, ETC., TO THE MESSAGE FILE EVERY     1  INCREMENTS

     COLLECTING MODEL CONSTRAINT INFORMATION FOR OVERCONSTRAINT CHECKS

     COLLECTING STEP CONSTRAINT INFORMATION FOR OVERCONSTRAINT CHECKS


  INCREMENT     1 STARTS. ATTEMPT NUMBER  1, TIME INCREMENT   1.00    
 
	SYMMETRIC PURE THREAD-BASED DIRECT SPARSE SOLVER RUNNING ON
 	1 HOST x 1 MPI RANK PER HOST x 1 THREAD PER RANK
        NUMBER OF EQUATIONS:  90774
        NUMBER OF RHS:        1
        NUMBER OF FLOPS:      6.037e+09
        SOLVER ELAPSED TIME:  218ms

               CONVERGENCE CHECKS FOR EQUILIBRIUM ITERATION     1


 AVERAGE FORCE                      3.118E+03   TIME AVG. FORCE       3.118E+03
 LARGEST SCALED RESIDUAL FORCE      7.121E+04   AT NODE      11029   DOF  1
   INSTANCE: SPIRAL-1                                                                        
  CORRESPONDING RESIDUAL FORCE      7.121E+04
 LARGEST INCREMENT OF DISP.        -0.165       AT NODE       3156   DOF  3
   INSTANCE: SPIRAL-1                                                                        
 LARGEST CORRECTION TO DISP.       -0.165       AT NODE       3156   DOF  3
   INSTANCE: SPIRAL-1                                                                        
          FORCE     EQUILIBRIUM NOT ACHIEVED WITHIN TOLERANCE.
 
	SYMMETRIC PURE THREAD-BASED DIRECT SPARSE SOLVER RUNNING ON
 	1 HOST x 1 MPI RANK PER HOST x 1 THREAD PER RANK
        NUMBER OF EQUATIONS:  90774
        NUMBER OF RHS:        1
        NUMBER OF FLOPS:      6.037e+09
        SOLVER ELAPSED TIME:  220ms
 

 ***WARNING: THE SYSTEM MATRIX HAS 24962 NEGATIVE EIGENVALUES.

     NEGATIVE EIGENVALUES MEAN THAT THE SYSTEM MATRIX IS NOT 
     POSITIVE DEFINITE:
     FOR EXAMPLE, A BIFURCATION (BUCKLING) LOAD MAY HAVE BEEN EXCEEDED.
   ELEMENT SPIRAL-1.1 IS DISTORTING EXCESSIVELY.
   ELEMENT SPIRAL-1.3 IS DISTORTING EXCESSIVELY.
   ELEMENT SPIRAL-1.4 IS DISTORTING EXCESSIVELY.
   ELEMENT SPIRAL-1.6 IS DISTORTING EXCESSIVELY.
   ELEMENT SPIRAL-1.7 IS DISTORTING EXCESSIVELY.
   ELEMENT SPIRAL-1.8 IS DISTORTING EXCESSIVELY.
   ELEMENT SPIRAL-1.9 IS DISTORTING EXCESSIVELY.
   ELEMENT SPIRAL-1.11 IS DISTORTING EXCESSIVELY.
   ELEMENT SPIRAL-1.12 IS DISTORTING EXCESSIVELY.
   ELEMENT SPIRAL-1.14 IS DISTORTING EXCESSIVELY.
   ELEMENT SPIRAL-1.18 IS DISTORTING EXCESSIVELY.
   ELEMENT SPIRAL-1.20 IS DISTORTING EXCESSIVELY.
   ELEMENT SPIRAL-1.21 IS DISTORTING EXCESSIVELY.
   ELEMENT SPIRAL-1.22 IS DISTORTING EXCESSIVELY.
   ELEMENT SPIRAL-1.23 IS DISTORTING EXCESSIVELY.
   ELEMENT SPIRAL-1.26 IS DISTORTING EXCESSIVELY.
   ELEMENT SPIRAL-1.27 IS DISTORTING EXCESSIVELY.
   ELEMENT SPIRAL-1.31 IS DISTORTING EXCESSIVELY.
   ELEMENT SPIRAL-1.34 IS DISTORTING EXCESSIVELY.
   ELEMENT SPIRAL-1.36 IS DISTORTING EXCESSIVELY.
   ELEMENT SPIRAL-1.38 IS DISTORTING EXCESSIVELY.
   ELEMENT SPIRAL-1.39 IS DISTORTING EXCESSIVELY.
   ELEMENT SPIRAL-1.40 IS DISTORTING EXCESSIVELY.
   ELEMENT SPIRAL-1.41 IS DISTORTING EXCESSIVELY.
   ELEMENT SPIRAL-1.43 IS DISTORTING EXCESSIVELY.
   ELEMENT SPIRAL-1.44 IS DISTORTING EXCESSIVELY.
   ELEMENT SPIRAL-1.46 IS DISTORTING EXCESSIVELY.
   ELEMENT SPIRAL-1.47 IS DISTORTING EXCESSIVELY.
   ELEMENT SPIRAL-1.50 IS DISTORTING EXCESSIVELY.
   ELEMENT SPIRAL-1.51 IS DISTORTING EXCESSIVELY.
   ELEMENT SPIRAL-1.52 IS DISTORTING EXCESSIVELY.
   ELEMENT SPIRAL-1.54 IS DISTORTING EXCESSIVELY.
   ELEMENT SPIRAL-1.56 IS DISTORTING EXCESSIVELY.
   ELEMENT SPIRAL-1.58 IS DISTORTING EXCESSIVELY.
   ELEMENT SPIRAL-1.59 IS DISTORTING EXCESSIVELY.
   ELEMENT SPIRAL-1.61 IS DISTORTING EXCESSIVELY.
   ELEMENT SPIRAL-1.63 IS DISTORTING EXCESSIVELY.
   ELEMENT SPIRAL-1.64 IS DISTORTING EXCESSIVELY.
   ELEMENT SPIRAL-1.65 IS DISTORTING EXCESSIVELY.
   ELEMENT SPIRAL-1.67 IS DISTORTING EXCESSIVELY.
   ELEMENT SPIRAL-1.69 IS DISTORTING EXCESSIVELY.
   ELEMENT SPIRAL-1.71 IS DISTORTING EXCESSIVELY.
   ELEMENT SPIRAL-1.73 IS DISTORTING EXCESSIVELY.
   ELEMENT SPIRAL-1.77 IS DISTORTING EXCESSIVELY.
   ELEMENT SPIRAL-1.79 IS DISTORTING EXCESSIVELY.
   ELEMENT SPIRAL-1.82 IS DISTORTING EXCESSIVELY.
   ELEMENT SPIRAL-1.83 IS DISTORTING EXCESSIVELY.
   ELEMENT SPIRAL-1.85 IS DISTORTING EXCESSIVELY.
   ELEMENT SPIRAL-1.87 IS DISTORTING EXCESSIVELY.
   ELEMENT SPIRAL-1.88 IS DISTORTING EXCESSIVELY.
   ELEMENT SPIRAL-1.90 IS DISTORTING EXCESSIVELY.
   ELEMENT SPIRAL-1.91 IS DISTORTING EXCESSIVELY.
   ELEMENT SPIRAL-1.93 IS DISTORTING EXCESSIVELY.
   ELEMENT SPIRAL-1.94 IS DISTORTING EXCESSIVELY.
   ELEMENT SPIRAL-1.95 IS DISTORTING EXCESSIVELY.
   ELEMENT SPIRAL-1.97 IS DISTORTING EXCESSIVELY.
   ELEMENT SPIRAL-1.98 IS DISTORTING EXCESSIVELY.
   ELEMENT SPIRAL-1.104 IS DISTORTING EXCESSIVELY.
   ELEMENT SPIRAL-1.105 IS DISTORTING EXCESSIVELY.
   ELEMENT SPIRAL-1.108 IS DISTORTING EXCESSIVELY.
   ELEMENT SPIRAL-1.112 IS DISTORTING EXCESSIVELY.
   ELEMENT SPIRAL-1.113 IS DISTORTING EXCESSIVELY.
   ELEMENT SPIRAL-1.114 IS DISTORTING EXCESSIVELY.
   ELEMENT SPIRAL-1.116 IS DISTORTING EXCESSIVELY.
   ELEMENT SPIRAL-1.118 IS DISTORTING EXCESSIVELY.
   ELEMENT SPIRAL-1.120 IS DISTORTING EXCESSIVELY.
   ELEMENT SPIRAL-1.121 IS DISTORTING EXCESSIVELY.
   ELEMENT SPIRAL-1.122 IS DISTORTING EXCESSIVELY.
   ELEMENT SPIRAL-1.123 IS DISTORTING EXCESSIVELY.
   ELEMENT SPIRAL-1.126 IS DISTORTING EXCESSIVELY.
   ELEMENT SPIRAL-1.128 IS DISTORTING EXCESSIVELY.
   ELEMENT SPIRAL-1.129 IS DISTORTING EXCESSIVELY.
   ELEMENT SPIRAL-1.130 IS DISTORTING EXCESSIVELY.
   ELEMENT SPIRAL-1.132 IS DISTORTING EXCESSIVELY.
   ELEMENT SPIRAL-1.137 IS DISTORTING EXCESSIVELY.
   ELEMENT SPIRAL-1.138 IS DISTORTING EXCESSIVELY.
   ELEMENT SPIRAL-1.139 IS DISTORTING EXCESSIVELY.
   ELEMENT SPIRAL-1.144 IS DISTORTING EXCESSIVELY.
   ELEMENT SPIRAL-1.147 IS DISTORTING EXCESSIVELY.
   ELEMENT SPIRAL-1.148 IS DISTORTING EXCESSIVELY.
   ELEMENT SPIRAL-1.150 IS DISTORTING EXCESSIVELY.
   ELEMENT SPIRAL-1.151 IS DISTORTING EXCESSIVELY.
   ELEMENT SPIRAL-1.152 IS DISTORTING EXCESSIVELY.
   ELEMENT SPIRAL-1.153 IS DISTORTING EXCESSIVELY.
   ELEMENT SPIRAL-1.154 IS DISTORTING EXCESSIVELY.
   ELEMENT SPIRAL-1.156 IS DISTORTING EXCESSIVELY.
   ELEMENT SPIRAL-1.157 IS DISTORTING EXCESSIVELY.
   ELEMENT SPIRAL-1.160 IS DISTORTING EXCESSIVELY.
   ELEMENT SPIRAL-1.161 IS DISTORTING EXCESSIVELY.
   ELEMENT SPIRAL-1.165 IS DISTORTING EXCESSIVELY.
   ELEMENT SPIRAL-1.168 IS DISTORTING EXCESSIVELY.
   ELEMENT SPIRAL-1.169 IS DISTORTING EXCESSIVELY.
   ELEMENT SPIRAL-1.170 IS DISTORTING EXCESSIVELY.
   ELEMENT SPIRAL-1.174 IS DISTORTING EXCESSIVELY.
   ELEMENT SPIRAL-1.175 IS DISTORTING EXCESSIVELY.
   ELEMENT SPIRAL-1.176 IS DISTORTING EXCESSIVELY.
   ELEMENT SPIRAL-1.178 IS DISTORTING EXCESSIVELY.
   ELEMENT SPIRAL-1.180 IS DISTORTING EXCESSIVELY.
   ELEMENT SPIRAL-1.182 IS DISTORTING EXCESSIVELY.
   ELEMENT SPIRAL-1.183 IS DISTORTING EXCESSIVELY.
   ELEMENT SPIRAL-1.184 IS DISTORTING EXCESSIVELY.
   ELEMENT SPIRAL-1.188 IS DISTORTING EXCESSIVELY.
   ELEMENT SPIRAL-1.189 IS DISTORTING EXCESSIVELY.
   ELEMENT SPIRAL-1.190 IS DISTORTING EXCESSIVELY.
   ELEMENT SPIRAL-1.191 IS DISTORTING EXCESSIVELY.
   ELEMENT SPIRAL-1.194 IS DISTORTING EXCESSIVELY.
   ELEMENT SPIRAL-1.195 IS DISTORTING EXCESSIVELY.
   ELEMENT SPIRAL-1.196 IS DISTORTING EXCESSIVELY.
   ELEMENT SPIRAL-1.200 IS DISTORTING EXCESSIVELY.
   ELEMENT SPIRAL-1.202 IS DISTORTING EXCESSIVELY.
   ELEMENT SPIRAL-1.203 IS DISTORTING EXCESSIVELY.
   ELEMENT SPIRAL-1.206 IS DISTORTING EXCESSIVELY.
   ELEMENT SPIRAL-1.208 IS DISTORTING EXCESSIVELY.
   ELEMENT SPIRAL-1.210 IS DISTORTING EXCESSIVELY.
   ELEMENT SPIRAL-1.216 IS DISTORTING EXCESSIVELY.
   ELEMENT SPIRAL-1.217 IS DISTORTING EXCESSIVELY.
   ELEMENT SPIRAL-1.218 IS DISTORTING EXCESSIVELY.
   ELEMENT SPIRAL-1.219 IS DISTORTING EXCESSIVELY.
   ELEMENT SPIRAL-1.224 IS DISTORTING EXCESSIVELY.
   ELEMENT SPIRAL-1.226 IS DISTORTING EXCESSIVELY.
   ELEMENT SPIRAL-1.229 IS DISTORTING EXCESSIVELY.
   ELEMENT SPIRAL-1.231 IS DISTORTING EXCESSIVELY.
   ELEMENT SPIRAL-1.232 IS DISTORTING EXCESSIVELY.
   ELEMENT SPIRAL-1.234 IS DISTORTING EXCESSIVELY.
   ELEMENT SPIRAL-1.239 IS DISTORTING EXCESSIVELY.
   ELEMENT SPIRAL-1.240 IS DISTORTING EXCESSIVELY.
   ELEMENT SPIRAL-1.243 IS DISTORTING EXCESSIVELY.
   ELEMENT SPIRAL-1.244 IS DISTORTING EXCESSIVELY.
   ELEMENT SPIRAL-1.246 IS DISTORTING EXCESSIVELY.
   ELEMENT SPIRAL-1.247 IS DISTORTING EXCESSIVELY.
   ELEMENT SPIRAL-1.248 IS DISTORTING EXCESSIVELY.
   ELEMENT SPIRAL-1.249 IS DISTORTING EXCESSIVELY.
   ELEMENT SPIRAL-1.250 IS DISTORTING EXCESSIVELY.
   ELEMENT SPIRAL-1.253 IS DISTORTING EXCESSIVELY.
   ELEMENT SPIRAL-1.254 IS DISTORTING EXCESSIVELY.
   ELEMENT SPIRAL-1.256 IS DISTORTING EXCESSIVELY.
   ELEMENT SPIRAL-1.259 IS DISTORTING EXCESSIVELY.
   ELEMENT SPIRAL-1.262 IS DISTORTING EXCESSIVELY.
   ELEMENT SPIRAL-1.263 IS DISTORTING EXCESSIVELY.
   ELEMENT SPIRAL-1.264 IS DISTORTING EXCESSIVELY.
   ELEMENT SPIRAL-1.265 IS DISTORTING EXCESSIVELY.
   ELEMENT SPIRAL-1.267 IS DISTORTING EXCESSIVELY.
   ELEMENT SPIRAL-1.268 IS DISTORTING EXCESSIVELY.
   ELEMENT SPIRAL-1.270 IS DISTORTING EXCESSIVELY.
   ELEMENT SPIRAL-1.271 IS DISTORTING EXCESSIVELY.
   ELEMENT SPIRAL-1.273 IS DISTORTING EXCESSIVELY.
   ELEMENT SPIRAL-1.274 IS DISTORTING EXCESSIVELY.
   ELEMENT SPIRAL-1.275 IS DISTORTING EXCESSIVELY.
   ELEMENT SPIRAL-1.278 IS DISTORTING EXCESSIVELY.
   ELEMENT SPIRAL-1.281 IS DISTORTING EXCESSIVELY.
   ELEMENT SPIRAL-1.286 IS DISTORTING EXCESSIVELY.
   ELEMENT SPIRAL-1.287 IS DISTORTING EXCESSIVELY.
   ELEMENT SPIRAL-1.296 IS DISTORTING EXCESSIVELY.
   ELEMENT SPIRAL-1.298 IS DISTORTING EXCESSIVELY.
   ELEMENT SPIRAL-1.301 IS DISTORTING EXCESSIVELY.
   ELEMENT SPIRAL-1.302 IS DISTORTING EXCESSIVELY.
   ELEMENT SPIRAL-1.303 IS DISTORTING EXCESSIVELY.
   ELEMENT SPIRAL-1.305 IS DISTORTING EXCESSIVELY.
   ELEMENT SPIRAL-1.307 IS DISTORTING EXCESSIVELY.
   ELEMENT SPIRAL-1.309 IS DISTORTING EXCESSIVELY.
   ELEMENT SPIRAL-1.312 IS DISTORTING EXCESSIVELY.
   ELEMENT SPIRAL-1.314 IS DISTORTING EXCESSIVELY.
   ELEMENT SPIRAL-1.315 IS DISTORTING EXCESSIVELY.
   ELEMENT SPIRAL-1.317 IS DISTORTING EXCESSIVELY.
   ELEMENT SPIRAL-1.318 IS DISTORTING EXCESSIVELY.
   ELEMENT SPIRAL-1.320 IS DISTORTING EXCESSIVELY.
   ELEMENT SPIRAL-1.322 IS DISTORTING EXCESSIVELY.
   ELEMENT SPIRAL-1.324 IS DISTORTING EXCESSIVELY.
   ELEMENT SPIRAL-1.326 IS DISTORTING EXCESSIVELY.
   ELEMENT SPIRAL-1.328 IS DISTORTING EXCESSIVELY.
   ELEMENT SPIRAL-1.329 IS DISTORTING EXCESSIVELY.
   ELEMENT SPIRAL-1.331 IS DISTORTING EXCESSIVELY.
   ELEMENT SPIRAL-1.332 IS DISTORTING EXCESSIVELY.
   ELEMENT SPIRAL-1.334 IS DISTORTING EXCESSIVELY.
   ELEMENT SPIRAL-1.342 IS DISTORTING EXCESSIVELY.
   ELEMENT SPIRAL-1.349 IS DISTORTING EXCESSIVELY.
   ELEMENT SPIRAL-1.351 IS DISTORTING EXCESSIVELY.
   ELEMENT SPIRAL-1.352 IS DISTORTING EXCESSIVELY.
   ELEMENT SPIRAL-1.354 IS DISTORTING EXCESSIVELY.
   ELEMENT SPIRAL-1.357 IS DISTORTING EXCESSIVELY.
   ELEMENT SPIRAL-1.359 IS DISTORTING EXCESSIVELY.
   ELEMENT SPIRAL-1.360 IS DISTORTING EXCESSIVELY.
   ELEMENT SPIRAL-1.361 IS DISTORTING EXCESSIVELY.
   ELEMENT SPIRAL-1.362 IS DISTORTING EXCESSIVELY.
   ELEMENT SPIRAL-1.366 IS DISTORTING EXCESSIVELY.
   ELEMENT SPIRAL-1.367 IS DISTORTING EXCESSIVELY.
   ELEMENT SPIRAL-1.368 IS DISTORTING EXCESSIVELY.
   ELEMENT SPIRAL-1.374 IS DISTORTING EXCESSIVELY.
   ELEMENT SPIRAL-1.376 IS DISTORTING EXCESSIVELY.
   ELEMENT SPIRAL-1.377 IS DISTORTING EXCESSIVELY.
   ELEMENT SPIRAL-1.378 IS DISTORTING EXCESSIVELY.
   ELEMENT SPIRAL-1.379 IS DISTORTING EXCESSIVELY.
   ELEMENT SPIRAL-1.380 IS DISTORTING EXCESSIVELY.
   ELEMENT SPIRAL-1.381 IS DISTORTING EXCESSIVELY.
   ELEMENT SPIRAL-1.382 IS DISTORTING EXCESSIVELY.
   ELEMENT SPIRAL-1.383 IS DISTORTING EXCESSIVELY.
   ELEMENT SPIRAL-1.384 IS DISTORTING EXCESSIVELY.
   ELEMENT SPIRAL-1.387 IS DISTORTING EXCESSIVELY.
   ELEMENT SPIRAL-1.388 IS DISTORTING EXCESSIVELY.
   ELEMENT SPIRAL-1.389 IS DISTORTING EXCESSIVELY.
   ELEMENT SPIRAL-1.390 IS DISTORTING EXCESSIVELY.
   ELEMENT SPIRAL-1.392 IS DISTORTING EXCESSIVELY.
   ELEMENT SPIRAL-1.395 IS DISTORTING EXCESSIVELY.
   ELEMENT SPIRAL-1.397 IS DISTORTING EXCESSIVELY.
   ELEMENT SPIRAL-1.398 IS DISTORTING EXCESSIVELY.
   ELEMENT SPIRAL-1.403 IS DISTORTING EXCESSIVELY.
   ELEMENT SPIRAL-1.406 IS DISTORTING EXCESSIVELY.
   ELEMENT SPIRAL-1.407 IS DISTORTING EXCESSIVELY.
   ELEMENT SPIRAL-1.408 IS DISTORTING EXCESSIVELY.
   ELEMENT SPIRAL-1.409 IS DISTORTING EXCESSIVELY.
   ELEMENT SPIRAL-1.411 IS DISTORTING EXCESSIVELY.
   ELEMENT SPIRAL-1.412 IS DISTORTING EXCESSIVELY.
   ELEMENT SPIRAL-1.416 IS DISTORTING EXCESSIVELY.
   ELEMENT SPIRAL-1.418 IS DISTORTING EXCESSIVELY.
   ELEMENT SPIRAL-1.419 IS DISTORTING EXCESSIVELY.
   ELEMENT SPIRAL-1.420 IS DISTORTING EXCESSIVELY.
   ELEMENT SPIRAL-1.423 IS DISTORTING EXCESSIVELY.
   ELEMENT SPIRAL-1.424 IS DISTORTING EXCESSIVELY.
   ELEMENT SPIRAL-1.425 IS DISTORTING EXCESSIVELY.
   ELEMENT SPIRAL-1.426 IS DISTORTING EXCESSIVELY.
   ELEMENT SPIRAL-1.427 IS DISTORTING EXCESSIVELY.
   ELEMENT SPIRAL-1.429 IS DISTORTING EXCESSIVELY.
   ELEMENT SPIRAL-1.430 IS DISTORTING EXCESSIVELY.
   ELEMENT SPIRAL-1.431 IS DISTORTING EXCESSIVELY.
   ELEMENT SPIRAL-1.432 IS DISTORTING EXCESSIVELY.
   ELEMENT SPIRAL-1.434 IS DISTORTING EXCESSIVELY.
   ELEMENT SPIRAL-1.440 IS DISTORTING EXCESSIVELY.
   ELEMENT SPIRAL-1.442 IS DISTORTING EXCESSIVELY.
   ELEMENT SPIRAL-1.443 IS DISTORTING EXCESSIVELY.
   ELEMENT SPIRAL-1.444 IS DISTORTING EXCESSIVELY.
   ELEMENT SPIRAL-1.446 IS DISTORTING EXCESSIVELY.
   ELEMENT SPIRAL-1.450 IS DISTORTING EXCESSIVELY.
   ELEMENT SPIRAL-1.451 IS DISTORTING EXCESSIVELY.
   ELEMENT SPIRAL-1.453 IS DISTORTING EXCESSIVELY.
   ELEMENT SPIRAL-1.454 IS DISTORTING EXCESSIVELY.
   ELEMENT SPIRAL-1.459 IS DISTORTING EXCESSIVELY.
   ELEMENT SPIRAL-1.460 IS DISTORTING EXCESSIVELY.
   ELEMENT SPIRAL-1.463 IS DISTORTING EXCESSIVELY.
   ELEMENT SPIRAL-1.464 IS DISTORTING EXCESSIVELY.
   ELEMENT SPIRAL-1.469 IS DISTORTING EXCESSIVELY.
   ELEMENT SPIRAL-1.472 IS DISTORTING EXCESSIVELY.
   ELEMENT SPIRAL-1.473 IS DISTORTING EXCESSIVELY.
   ELEMENT SPIRAL-1.477 IS DISTORTING EXCESSIVELY.
   ELEMENT SPIRAL-1.481 IS DISTORTING EXCESSIVELY.
   ELEMENT SPIRAL-1.482 IS DISTORTING EXCESSIVELY.
   ELEMENT SPIRAL-1.485 IS DISTORTING EXCESSIVELY.
   ELEMENT SPIRAL-1.491 IS DISTORTING EXCESSIVELY.
   ELEMENT SPIRAL-1.492 IS DISTORTING EXCESSIVELY.
   ELEMENT SPIRAL-1.493 IS DISTORTING EXCESSIVELY.
   ELEMENT SPIRAL-1.494 IS DISTORTING EXCESSIVELY.
   ELEMENT SPIRAL-1.496 IS DISTORTING EXCESSIVELY.
   ELEMENT SPIRAL-1.497 IS DISTORTING EXCESSIVELY.
   ELEMENT SPIRAL-1.498 IS DISTORTING EXCESSIVELY.
   ELEMENT SPIRAL-1.500 IS DISTORTING EXCESSIVELY.
   ELEMENT SPIRAL-1.501 IS DISTORTING EXCESSIVELY.
   ELEMENT SPIRAL-1.504 IS DISTORTING EXCESSIVELY.
   ELEMENT SPIRAL-1.506 IS DISTORTING EXCESSIVELY.
   ELEMENT SPIRAL-1.507 IS DISTORTING EXCESSIVELY.
   ELEMENT SPIRAL-1.508 IS DISTORTING EXCESSIVELY.
   ELEMENT SPIRAL-1.509 IS DISTORTING EXCESSIVELY.
   ELEMENT SPIRAL-1.510 IS DISTORTING EXCESSIVELY.
   ELEMENT SPIRAL-1.511 IS DISTORTING EXCESSIVELY.
   ELEMENT SPIRAL-1.514 IS DISTORTING EXCESSIVELY.
   ELEMENT SPIRAL-1.515 IS DISTORTING EXCESSIVELY.
   ELEMENT SPIRAL-1.518 IS DISTORTING EXCESSIVELY.
   ELEMENT SPIRAL-1.519 IS DISTORTING EXCESSIVELY.
   ELEMENT SPIRAL-1.522 IS DISTORTING EXCESSIVELY.
   ELEMENT SPIRAL-1.527 IS DISTORTING EXCESSIVELY.
   ELEMENT SPIRAL-1.529 IS DISTORTING EXCESSIVELY.
   ELEMENT SPIRAL-1.533 IS DISTORTING EXCESSIVELY.
   ELEMENT SPIRAL-1.534 IS DISTORTING EXCESSIVELY.
   ELEMENT SPIRAL-1.536 IS DISTORTING EXCESSIVELY.
   ELEMENT SPIRAL-1.539 IS DISTORTING EXCESSIVELY.
   ELEMENT SPIRAL-1.542 IS DISTORTING EXCESSIVELY.
   ELEMENT SPIRAL-1.548 IS DISTORTING EXCESSIVELY.
   ELEMENT SPIRAL-1.549 IS DISTORTING EXCESSIVELY.
   ELEMENT SPIRAL-1.552 IS DISTORTING EXCESSIVELY.
   ELEMENT SPIRAL-1.553 IS DISTORTING EXCESSIVELY.
   ELEMENT SPIRAL-1.555 IS DISTORTING EXCESSIVELY.
   ELEMENT SPIRAL-1.556 IS DISTORTING EXCESSIVELY.
   ELEMENT SPIRAL-1.558 IS DISTORTING EXCESSIVELY.
   ELEMENT SPIRAL-1.561 IS DISTORTING EXCESSIVELY.
   ELEMENT SPIRAL-1.562 IS DISTORTING EXCESSIVELY.
   ELEMENT SPIRAL-1.563 IS DISTORTING EXCESSIVELY.
   ELEMENT SPIRAL-1.565 IS DISTORTING EXCESSIVELY.
   ELEMENT SPIRAL-1.567 IS DISTORTING EXCESSIVELY.
   ELEMENT SPIRAL-1.569 IS DISTORTING EXCESSIVELY.
   ELEMENT SPIRAL-1.570 IS DISTORTING EXCESSIVELY.
   ELEMENT SPIRAL-1.574 IS DISTORTING EXCESSIVELY.
   ELEMENT SPIRAL-1.575 IS DISTORTING EXCESSIVELY.
   ELEMENT SPIRAL-1.576 IS DISTORTING EXCESSIVELY.
   ELEMENT SPIRAL-1.578 IS DISTORTING EXCESSIVELY.
   ELEMENT SPIRAL-1.580 IS DISTORTING EXCESSIVELY.
   ELEMENT SPIRAL-1.581 IS DISTORTING EXCESSIVELY.
   ELEMENT SPIRAL-1.582 IS DISTORTING EXCESSIVELY.
   ELEMENT SPIRAL-1.583 IS DISTORTING EXCESSIVELY.
   ELEMENT SPIRAL-1.585 IS DISTORTING EXCESSIVELY.
   ELEMENT SPIRAL-1.594 IS DISTORTING EXCESSIVELY.
   ELEMENT SPIRAL-1.597 IS DISTORTING EXCESSIVELY.
   ELEMENT SPIRAL-1.601 IS DISTORTING EXCESSIVELY.
   ELEMENT SPIRAL-1.606 IS DISTORTING EXCESSIVELY.
   ELEMENT SPIRAL-1.607 IS DISTORTING EXCESSIVELY.
   ELEMENT SPIRAL-1.611 IS DISTORTING EXCESSIVELY.
   ELEMENT SPIRAL-1.615 IS DISTORTING EXCESSIVELY.
   ELEMENT SPIRAL-1.616 IS DISTORTING EXCESSIVELY.
   ELEMENT SPIRAL-1.618 IS DISTORTING EXCESSIVELY.
   ELEMENT SPIRAL-1.619 IS DISTORTING EXCESSIVELY.
   ELEMENT SPIRAL-1.620 IS DISTORTING EXCESSIVELY.
   ELEMENT SPIRAL-1.622 IS DISTORTING EXCESSIVELY.
   ELEMENT SPIRAL-1.624 IS DISTORTING EXCESSIVELY.
   ELEMENT SPIRAL-1.626 IS DISTORTING EXCESSIVELY.
   ELEMENT SPIRAL-1.627 IS DISTORTING EXCESSIVELY.
   ELEMENT SPIRAL-1.628 IS DISTORTING EXCESSIVELY.
   ELEMENT SPIRAL-1.629 IS DISTORTING EXCESSIVELY.
   ELEMENT SPIRAL-1.631 IS DISTORTING EXCESSIVELY.
   ELEMENT SPIRAL-1.632 IS DISTORTING EXCESSIVELY.
   ELEMENT SPIRAL-1.635 IS DISTORTING EXCESSIVELY.
   ELEMENT SPIRAL-1.636 IS DISTORTING EXCESSIVELY.
   ELEMENT SPIRAL-1.640 IS DISTORTING EXCESSIVELY.
   ELEMENT SPIRAL-1.641 IS DISTORTING EXCESSIVELY.
   ELEMENT SPIRAL-1.642 IS DISTORTING EXCESSIVELY.
   ELEMENT SPIRAL-1.643 IS DISTORTING EXCESSIVELY.
   ELEMENT SPIRAL-1.644 IS DISTORTING EXCESSIVELY.
   ELEMENT SPIRAL-1.645 IS DISTORTING EXCESSIVELY.
   ELEMENT SPIRAL-1.649 IS DISTORTING EXCESSIVELY.
   ELEMENT SPIRAL-1.650 IS DISTORTING EXCESSIVELY.
   ELEMENT SPIRAL-1.651 IS DISTORTING EXCESSIVELY.
   ELEMENT SPIRAL-1.653 IS DISTORTING EXCESSIVELY.
   ELEMENT SPIRAL-1.655 IS DISTORTING EXCESSIVELY.
   ELEMENT SPIRAL-1.657 IS DISTORTING EXCESSIVELY.
   ELEMENT SPIRAL-1.659 IS DISTORTING EXCESSIVELY.
   ELEMENT SPIRAL-1.660 IS DISTORTING EXCESSIVELY.
   ELEMENT SPIRAL-1.661 IS DISTORTING EXCESSIVELY.
   ELEMENT SPIRAL-1.663 IS DISTORTING EXCESSIVELY.
   ELEMENT SPIRAL-1.668 IS DISTORTING EXCESSIVELY.
   ELEMENT SPIRAL-1.669 IS DISTORTING EXCESSIVELY.
   ELEMENT SPIRAL-1.670 IS DISTORTING EXCESSIVELY.
   ELEMENT SPIRAL-1.672 IS DISTORTING EXCESSIVELY.
   ELEMENT SPIRAL-1.674 IS DISTORTING EXCESSIVELY.
   ELEMENT SPIRAL-1.675 IS DISTORTING EXCESSIVELY.
   ELEMENT SPIRAL-1.677 IS DISTORTING EXCESSIVELY.
   ELEMENT SPIRAL-1.678 IS DISTORTING EXCESSIVELY.
   ELEMENT SPIRAL-1.682 IS DISTORTING EXCESSIVELY.
   ELEMENT SPIRAL-1.683 IS DISTORTING EXCESSIVELY.
   ELEMENT SPIRAL-1.684 IS DISTORTING EXCESSIVELY.
   ELEMENT SPIRAL-1.685 IS DISTORTING EXCESSIVELY.
   ELEMENT SPIRAL-1.686 IS DISTORTING EXCESSIVELY.
   ELEMENT SPIRAL-1.687 IS DISTORTING EXCESSIVELY.
   ELEMENT SPIRAL-1.688 IS DISTORTING EXCESSIVELY.
   ELEMENT SPIRAL-1.692 IS DISTORTING EXCESSIVELY.
   ELEMENT SPIRAL-1.694 IS DISTORTING EXCESSIVELY.
   ELEMENT SPIRAL-1.696 IS DISTORTING EXCESSIVELY.
   ELEMENT SPIRAL-1.700 IS DISTORTING EXCESSIVELY.
   ELEMENT SPIRAL-1.702 IS DISTORTING EXCESSIVELY.
   ELEMENT SPIRAL-1.703 IS DISTORTING EXCESSIVELY.
   ELEMENT SPIRAL-1.704 IS DISTORTING EXCESSIVELY.
   ELEMENT SPIRAL-1.705 IS DISTORTING EXCESSIVELY.
   ELEMENT SPIRAL-1.706 IS DISTORTING EXCESSIVELY.
   ELEMENT SPIRAL-1.707 IS DISTORTING EXCESSIVELY.
   ELEMENT SPIRAL-1.708 IS DISTORTING EXCESSIVELY.
   ELEMENT SPIRAL-1.710 IS DISTORTING EXCESSIVELY.
   ELEMENT SPIRAL-1.713 IS DISTORTING EXCESSIVELY.
   ELEMENT SPIRAL-1.714 IS DISTORTING EXCESSIVELY.
   ELEMENT SPIRAL-1.715 IS DISTORTING EXCESSIVELY.
   ELEMENT SPIRAL-1.720 IS DISTORTING EXCESSIVELY.
   ELEMENT SPIRAL-1.725 IS DISTORTING EXCESSIVELY.
   ELEMENT SPIRAL-1.726 IS DISTORTING EXCESSIVELY.
   ELEMENT SPIRAL-1.731 IS DISTORTING EXCESSIVELY.
   ELEMENT SPIRAL-1.732 IS DISTORTING EXCESSIVELY.
   ELEMENT SPIRAL-1.733 IS DISTORTING EXCESSIVELY.
   ELEMENT SPIRAL-1.734 IS DISTORTING EXCESSIVELY.
   ELEMENT SPIRAL-1.735 IS DISTORTING EXCESSIVELY.
   ELEMENT SPIRAL-1.736 IS DISTORTING EXCESSIVELY.
   ELEMENT SPIRAL-1.738 IS DISTORTING EXCESSIVELY.
   ELEMENT SPIRAL-1.739 IS DISTORTING EXCESSIVELY.
   ELEMENT SPIRAL-1.741 IS DISTORTING EXCESSIVELY.
   ELEMENT SPIRAL-1.744 IS DISTORTING EXCESSIVELY.
   ELEMENT SPIRAL-1.748 IS DISTORTING EXCESSIVELY.
   ELEMENT SPIRAL-1.749 IS DISTORTING EXCESSIVELY.
   ELEMENT SPIRAL-1.750 IS DISTORTING EXCESSIVELY.
   ELEMENT SPIRAL-1.753 IS DISTORTING EXCESSIVELY.
   ELEMENT SPIRAL-1.755 IS DISTORTING EXCESSIVELY.
   ELEMENT SPIRAL-1.756 IS DISTORTING EXCESSIVELY.
   ELEMENT SPIRAL-1.758 IS DISTORTING EXCESSIVELY.
   ELEMENT SPIRAL-1.761 IS DISTORTING EXCESSIVELY.
   ELEMENT SPIRAL-1.766 IS DISTORTING EXCESSIVELY.
   ELEMENT SPIRAL-1.768 IS DISTORTING EXCESSIVELY.
   ELEMENT SPIRAL-1.771 IS DISTORTING EXCESSIVELY.
   ELEMENT SPIRAL-1.772 IS DISTORTING EXCESSIVELY.
   ELEMENT SPIRAL-1.773 IS DISTORTING EXCESSIVELY.
   ELEMENT SPIRAL-1.775 IS DISTORTING EXCESSIVELY.
   ELEMENT SPIRAL-1.778 IS DISTORTING EXCESSIVELY.
   ELEMENT SPIRAL-1.779 IS DISTORTING EXCESSIVELY.
   ELEMENT SPIRAL-1.780 IS DISTORTING EXCESSIVELY.
   ELEMENT SPIRAL-1.783 IS DISTORTING EXCESSIVELY.
   ELEMENT SPIRAL-1.788 IS DISTORTING EXCESSIVELY.
   ELEMENT SPIRAL-1.789 IS DISTORTING EXCESSIVELY.
   ELEMENT SPIRAL-1.790 IS DISTORTING EXCESSIVELY.
   ELEMENT SPIRAL-1.792 IS DISTORTING EXCESSIVELY.
   ELEMENT SPIRAL-1.796 IS DISTORTING EXCESSIVELY.
   ELEMENT SPIRAL-1.799 IS DISTORTING EXCESSIVELY.
   ELEMENT SPIRAL-1.800 IS DISTORTING EXCESSIVELY.
   ELEMENT SPIRAL-1.801 IS DISTORTING EXCESSIVELY.
   ELEMENT SPIRAL-1.803 IS DISTORTING EXCESSIVELY.
   ELEMENT SPIRAL-1.804 IS DISTORTING EXCESSIVELY.
   ELEMENT SPIRAL-1.807 IS DISTORTING EXCESSIVELY.
   ELEMENT SPIRAL-1.808 IS DISTORTING EXCESSIVELY.
   ELEMENT SPIRAL-1.809 IS DISTORTING EXCESSIVELY.
   ELEMENT SPIRAL-1.813 IS DISTORTING EXCESSIVELY.
   ELEMENT SPIRAL-1.816 IS DISTORTING EXCESSIVELY.
   ELEMENT SPIRAL-1.817 IS DISTORTING EXCESSIVELY.
   ELEMENT SPIRAL-1.819 IS DISTORTING EXCESSIVELY.
   ELEMENT SPIRAL-1.822 IS DISTORTING EXCESSIVELY.
   ELEMENT SPIRAL-1.826 IS DISTORTING EXCESSIVELY.
   ELEMENT SPIRAL-1.827 IS DISTORTING EXCESSIVELY.
   ELEMENT SPIRAL-1.828 IS DISTORTING EXCESSIVELY.
   ELEMENT SPIRAL-1.829 IS DISTORTING EXCESSIVELY.
   ELEMENT SPIRAL-1.833 IS DISTORTING EXCESSIVELY.
   ELEMENT SPIRAL-1.837 IS DISTORTING EXCESSIVELY.
   ELEMENT SPIRAL-1.838 IS DISTORTING EXCESSIVELY.
   ELEMENT SPIRAL-1.839 IS DISTORTING EXCESSIVELY.
   ELEMENT SPIRAL-1.843 IS DISTORTING EXCESSIVELY.
   ELEMENT SPIRAL-1.845 IS DISTORTING EXCESSIVELY.
   ELEMENT SPIRAL-1.848 IS DISTORTING EXCESSIVELY.
   ELEMENT SPIRAL-1.849 IS DISTORTING EXCESSIVELY.
   ELEMENT SPIRAL-1.850 IS DISTORTING EXCESSIVELY.
   ELEMENT SPIRAL-1.854 IS DISTORTING EXCESSIVELY.
   ELEMENT SPIRAL-1.855 IS DISTORTING EXCESSIVELY.
   ELEMENT SPIRAL-1.856 IS DISTORTING EXCESSIVELY.
   ELEMENT SPIRAL-1.857 IS DISTORTING EXCESSIVELY.
   ELEMENT SPIRAL-1.861 IS DISTORTING EXCESSIVELY.
   ELEMENT SPIRAL-1.863 IS DISTORTING EXCESSIVELY.
   ELEMENT SPIRAL-1.865 IS DISTORTING EXCESSIVELY.
   ELEMENT SPIRAL-1.866 IS DISTORTING EXCESSIVELY.
   ELEMENT SPIRAL-1.868 IS DISTORTING EXCESSIVELY.
   ELEMENT SPIRAL-1.869 IS DISTORTING EXCESSIVELY.
   ELEMENT SPIRAL-1.870 IS DISTORTING EXCESSIVELY.
   ELEMENT SPIRAL-1.871 IS DISTORTING EXCESSIVELY.
   ELEMENT SPIRAL-1.872 IS DISTORTING EXCESSIVELY.
   ELEMENT SPIRAL-1.874 IS DISTORTING EXCESSIVELY.
   ELEMENT SPIRAL-1.877 IS DISTORTING EXCESSIVELY.
   ELEMENT SPIRAL-1.878 IS DISTORTING EXCESSIVELY.
   ELEMENT SPIRAL-1.879 IS DISTORTING EXCESSIVELY.
   ELEMENT SPIRAL-1.881 IS DISTORTING EXCESSIVELY.
   ELEMENT SPIRAL-1.883 IS DISTORTING EXCESSIVELY.
   ELEMENT SPIRAL-1.884 IS DISTORTING EXCESSIVELY.
   ELEMENT SPIRAL-1.885 IS DISTORTING EXCESSIVELY.
   ELEMENT SPIRAL-1.890 IS DISTORTING EXCESSIVELY.
   ELEMENT SPIRAL-1.894 IS DISTORTING EXCESSIVELY.
   ELEMENT SPIRAL-1.897 IS DISTORTING EXCESSIVELY.
   ELEMENT SPIRAL-1.898 IS DISTORTING EXCESSIVELY.
   ELEMENT SPIRAL-1.902 IS DISTORTING EXCESSIVELY.
   ELEMENT SPIRAL-1.903 IS DISTORTING EXCESSIVELY.
   ELEMENT SPIRAL-1.908 IS DISTORTING EXCESSIVELY.
   ELEMENT SPIRAL-1.915 IS DISTORTING EXCESSIVELY.
   ELEMENT SPIRAL-1.918 IS DISTORTING EXCESSIVELY.
   ELEMENT SPIRAL-1.921 IS DISTORTING EXCESSIVELY.
   ELEMENT SPIRAL-1.922 IS DISTORTING EXCESSIVELY.
   ELEMENT SPIRAL-1.924 IS DISTORTING EXCESSIVELY.
   ELEMENT SPIRAL-1.927 IS DISTORTING EXCESSIVELY.
   ELEMENT SPIRAL-1.929 IS DISTORTING EXCESSIVELY.
   ELEMENT SPIRAL-1.930 IS DISTORTING EXCESSIVELY.
   ELEMENT SPIRAL-1.931 IS DISTORTING EXCESSIVELY.
   ELEMENT SPIRAL-1.933 IS DISTORTING EXCESSIVELY.
   ELEMENT SPIRAL-1.935 IS DISTORTING EXCESSIVELY.
   ELEMENT SPIRAL-1.936 IS DISTORTING EXCESSIVELY.
   ELEMENT SPIRAL-1.942 IS DISTORTING EXCESSIVELY.
   ELEMENT SPIRAL-1.943 IS DISTORTING EXCESSIVELY.
   ELEMENT SPIRAL-1.945 IS DISTORTING EXCESSIVELY.
   ELEMENT SPIRAL-1.948 IS DISTORTING EXCESSIVELY.
   ELEMENT SPIRAL-1.949 IS DISTORTING EXCESSIVELY.
   ELEMENT SPIRAL-1.951 IS DISTORTING EXCESSIVELY.
   ELEMENT SPIRAL-1.955 IS DISTORTING EXCESSIVELY.
   ELEMENT SPIRAL-1.957 IS DISTORTING EXCESSIVELY.
   ELEMENT SPIRAL-1.958 IS DISTORTING EXCESSIVELY.
   ELEMENT SPIRAL-1.959 IS DISTORTING EXCESSIVELY.
   ELEMENT SPIRAL-1.961 IS DISTORTING EXCESSIVELY.
   ELEMENT SPIRAL-1.962 IS DISTORTING EXCESSIVELY.
   ELEMENT SPIRAL-1.964 IS DISTORTING EXCESSIVELY.
   ELEMENT SPIRAL-1.967 IS DISTORTING EXCESSIVELY.
   ELEMENT SPIRAL-1.968 IS DISTORTING EXCESSIVELY.
   ELEMENT SPIRAL-1.974 IS DISTORTING EXCESSIVELY.
   ELEMENT SPIRAL-1.976 IS DISTORTING EXCESSIVELY.
   ELEMENT SPIRAL-1.978 IS DISTORTING EXCESSIVELY.
   ELEMENT SPIRAL-1.979 IS DISTORTING EXCESSIVELY.
   ELEMENT SPIRAL-1.981 IS DISTORTING EXCESSIVELY.
   ELEMENT SPIRAL-1.985 IS DISTORTING EXCESSIVELY.
   ELEMENT SPIRAL-1.986 IS DISTORTING EXCESSIVELY.
   ELEMENT SPIRAL-1.988 IS DISTORTING EXCESSIVELY.
   ELEMENT SPIRAL-1.990 IS DISTORTING EXCESSIVELY.
   ELEMENT SPIRAL-1.992 IS DISTORTING EXCESSIVELY.
   ELEMENT SPIRAL-1.994 IS DISTORTING EXCESSIVELY.
   ELEMENT SPIRAL-1.995 IS DISTORTING EXCESSIVELY.
   ELEMENT SPIRAL-1.997 IS DISTORTING EXCESSIVELY.
   ELEMENT SPIRAL-1.1007 IS DISTORTING EXCESSIVELY.
   ELEMENT SPIRAL-1.1009 IS DISTORTING EXCESSIVELY.
   ELEMENT SPIRAL-1.1012 IS DISTORTING EXCESSIVELY.
   ELEMENT SPIRAL-1.1013 IS DISTORTING EXCESSIVELY.
   ELEMENT SPIRAL-1.1017 IS DISTORTING EXCESSIVELY.
   ELEMENT SPIRAL-1.1018 IS DISTORTING EXCESSIVELY.
   ELEMENT SPIRAL-1.1019 IS DISTORTING EXCESSIVELY.
   ELEMENT SPIRAL-1.1022 IS DISTORTING EXCESSIVELY.
   ELEMENT SPIRAL-1.1024 IS DISTORTING EXCESSIVELY.
   ELEMENT SPIRAL-1.1025 IS DISTORTING EXCESSIVELY.
   ELEMENT SPIRAL-1.1026 IS DISTORTING EXCESSIVELY.
   ELEMENT SPIRAL-1.1029 IS DISTORTING EXCESSIVELY.
   ELEMENT SPIRAL-1.1030 IS DISTORTING EXCESSIVELY.
   ELEMENT SPIRAL-1.1036 IS DISTORTING EXCESSIVELY.
   ELEMENT SPIRAL-1.1037 IS DISTORTING EXCESSIVELY.
   ELEMENT SPIRAL-1.1038 IS DISTORTING EXCESSIVELY.
   ELEMENT SPIRAL-1.1039 IS DISTORTING EXCESSIVELY.
   ELEMENT SPIRAL-1.1041 IS DISTORTING EXCESSIVELY.
   ELEMENT SPIRAL-1.1043 IS DISTORTING EXCESSIVELY.
   ELEMENT SPIRAL-1.1044 IS DISTORTING EXCESSIVELY.
   ELEMENT SPIRAL-1.1048 IS DISTORTING EXCESSIVELY.
   ELEMENT SPIRAL-1.1049 IS DISTORTING EXCESSIVELY.
   ELEMENT SPIRAL-1.1050 IS DISTORTING EXCESSIVELY.
   ELEMENT SPIRAL-1.1052 IS DISTORTING EXCESSIVELY.
   ELEMENT SPIRAL-1.1053 IS DISTORTING EXCESSIVELY.
   ELEMENT SPIRAL-1.1054 IS DISTORTING EXCESSIVELY.
   ELEMENT SPIRAL-1.1055 IS DISTORTING EXCESSIVELY.
   ELEMENT SPIRAL-1.1056 IS DISTORTING EXCESSIVELY.
   ELEMENT SPIRAL-1.1059 IS DISTORTING EXCESSIVELY.
   ELEMENT SPIRAL-1.1061 IS DISTORTING EXCESSIVELY.
   ELEMENT SPIRAL-1.1062 IS DISTORTING EXCESSIVELY.
   ELEMENT SPIRAL-1.1063 IS DISTORTING EXCESSIVELY.
   ELEMENT SPIRAL-1.1064 IS DISTORTING EXCESSIVELY.
   ELEMENT SPIRAL-1.1066 IS DISTORTING EXCESSIVELY.
   ELEMENT SPIRAL-1.1068 IS DISTORTING EXCESSIVELY.
   ELEMENT SPIRAL-1.1069 IS DISTORTING EXCESSIVELY.
   ELEMENT SPIRAL-1.1070 IS DISTORTING EXCESSIVELY.
   ELEMENT SPIRAL-1.1073 IS DISTORTING EXCESSIVELY.
   ELEMENT SPIRAL-1.1078 IS DISTORTING EXCESSIVELY.
   ELEMENT SPIRAL-1.1081 IS DISTORTING EXCESSIVELY.
   ELEMENT SPIRAL-1.1086 IS DISTORTING EXCESSIVELY.
   ELEMENT SPIRAL-1.1088 IS DISTORTING EXCESSIVELY.
   ELEMENT SPIRAL-1.1092 IS DISTORTING EXCESSIVELY.
   ELEMENT SPIRAL-1.1093 IS DISTORTING EXCESSIVELY.
   ELEMENT SPIRAL-1.1096 IS DISTORTING EXCESSIVELY.
   ELEMENT SPIRAL-1.1097 IS DISTORTING EXCESSIVELY.
   ELEMENT SPIRAL-1.1098 IS DISTORTING EXCESSIVELY.
   ELEMENT SPIRAL-1.1100 IS DISTORTING EXCESSIVELY.
   ELEMENT SPIRAL-1.1102 IS DISTORTING EXCESSIVELY.
   ELEMENT SPIRAL-1.1103 IS DISTORTING EXCESSIVELY.
   ELEMENT SPIRAL-1.1104 IS DISTORTING EXCESSIVELY.
   ELEMENT SPIRAL-1.1106 IS DISTORTING EXCESSIVELY.
   ELEMENT SPIRAL-1.1109 IS DISTORTING EXCESSIVELY.
   ELEMENT SPIRAL-1.1114 IS DISTORTING EXCESSIVELY.
   ELEMENT SPIRAL-1.1116 IS DISTORTING EXCESSIVELY.
   ELEMENT SPIRAL-1.1117 IS DISTORTING EXCESSIVELY.
   ELEMENT SPIRAL-1.1119 IS DISTORTING EXCESSIVELY.
   ELEMENT SPIRAL-1.1120 IS DISTORTING EXCESSIVELY.
   ELEMENT SPIRAL-1.1123 IS DISTORTING EXCESSIVELY.
   ELEMENT SPIRAL-1.1124 IS DISTORTING EXCESSIVELY.
   ELEMENT SPIRAL-1.1125 IS DISTORTING EXCESSIVELY.
   ELEMENT SPIRAL-1.1126 IS DISTORTING EXCESSIVELY.
   ELEMENT SPIRAL-1.1128 IS DISTORTING EXCESSIVELY.
   ELEMENT SPIRAL-1.1129 IS DISTORTING EXCESSIVELY.
   ELEMENT SPIRAL-1.1130 IS DISTORTING EXCESSIVELY.
   ELEMENT SPIRAL-1.1132 IS DISTORTING EXCESSIVELY.
   ELEMENT SPIRAL-1.1135 IS DISTORTING EXCESSIVELY.
   ELEMENT SPIRAL-1.1137 IS DISTORTING EXCESSIVELY.
   ELEMENT SPIRAL-1.1138 IS DISTORTING EXCESSIVELY.
   ELEMENT SPIRAL-1.1140 IS DISTORTING EXCESSIVELY.
   ELEMENT SPIRAL-1.1141 IS DISTORTING EXCESSIVELY.
   ELEMENT SPIRAL-1.1142 IS DISTORTING EXCESSIVELY.
   ELEMENT SPIRAL-1.1143 IS DISTORTING EXCESSIVELY.
   ELEMENT SPIRAL-1.1148 IS DISTORTING EXCESSIVELY.
   ELEMENT SPIRAL-1.1149 IS DISTORTING EXCESSIVELY.
   ELEMENT SPIRAL-1.1151 IS DISTORTING EXCESSIVELY.
   ELEMENT SPIRAL-1.1152 IS DISTORTING EXCESSIVELY.
   ELEMENT SPIRAL-1.1154 IS DISTORTING EXCESSIVELY.
   ELEMENT SPIRAL-1.1157 IS DISTORTING EXCESSIVELY.
   ELEMENT SPIRAL-1.1161 IS DISTORTING EXCESSIVELY.
   ELEMENT SPIRAL-1.1162 IS DISTORTING EXCESSIVELY.
   ELEMENT SPIRAL-1.1165 IS DISTORTING EXCESSIVELY.
   ELEMENT SPIRAL-1.1167 IS DISTORTING EXCESSIVELY.
   ELEMENT SPIRAL-1.1168 IS DISTORTING EXCESSIVELY.
   ELEMENT SPIRAL-1.1169 IS DISTORTING EXCESSIVELY.
   ELEMENT SPIRAL-1.1171 IS DISTORTING EXCESSIVELY.
   ELEMENT SPIRAL-1.1174 IS DISTORTING EXCESSIVELY.
   ELEMENT SPIRAL-1.1176 IS DISTORTING EXCESSIVELY.
   ELEMENT SPIRAL-1.1177 IS DISTORTING EXCESSIVELY.
   ELEMENT SPIRAL-1.1178 IS DISTORTING EXCESSIVELY.
   ELEMENT SPIRAL-1.1179 IS DISTORTING EXCESSIVELY.
   ELEMENT SPIRAL-1.1180 IS DISTORTING EXCESSIVELY.
   ELEMENT SPIRAL-1.1181 IS DISTORTING EXCESSIVELY.
   ELEMENT SPIRAL-1.1182 IS DISTORTING EXCESSIVELY.
   ELEMENT SPIRAL-1.1186 IS DISTORTING EXCESSIVELY.
   ELEMENT SPIRAL-1.1188 IS DISTORTING EXCESSIVELY.
   ELEMENT SPIRAL-1.1189 IS DISTORTING EXCESSIVELY.
   ELEMENT SPIRAL-1.1190 IS DISTORTING EXCESSIVELY.
   ELEMENT SPIRAL-1.1192 IS DISTORTING EXCESSIVELY.
   ELEMENT SPIRAL-1.1193 IS DISTORTING EXCESSIVELY.
   ELEMENT SPIRAL-1.1194 IS DISTORTING EXCESSIVELY.
   ELEMENT SPIRAL-1.1195 IS DISTORTING EXCESSIVELY.
   ELEMENT SPIRAL-1.1196 IS DISTORTING EXCESSIVELY.
   ELEMENT SPIRAL-1.1197 IS DISTORTING EXCESSIVELY.
   ELEMENT SPIRAL-1.1198 IS DISTORTING EXCESSIVELY.
   ELEMENT SPIRAL-1.1200 IS DISTORTING EXCESSIVELY.
   ELEMENT SPIRAL-1.1204 IS DISTORTING EXCESSIVELY.
   ELEMENT SPIRAL-1.1205 IS DISTORTING EXCESSIVELY.
   ELEMENT SPIRAL-1.1206 IS DISTORTING EXCESSIVELY.
   ELEMENT SPIRAL-1.1207 IS DISTORTING EXCESSIVELY.
   ELEMENT SPIRAL-1.1208 IS DISTORTING EXCESSIVELY.
   ELEMENT SPIRAL-1.1210 IS DISTORTING EXCESSIVELY.
   ELEMENT SPIRAL-1.1211 IS DISTORTING EXCESSIVELY.
   ELEMENT SPIRAL-1.1213 IS DISTORTING EXCESSIVELY.
   ELEMENT SPIRAL-1.1215 IS DISTORTING EXCESSIVELY.
   ELEMENT SPIRAL-1.1216 IS DISTORTING EXCESSIVELY.
   ELEMENT SPIRAL-1.1219 IS DISTORTING EXCESSIVELY.
   ELEMENT SPIRAL-1.1223 IS DISTORTING EXCESSIVELY.
   ELEMENT SPIRAL-1.1224 IS DISTORTING EXCESSIVELY.
   ELEMENT SPIRAL-1.1225 IS DISTORTING EXCESSIVELY.
   ELEMENT SPIRAL-1.1228 IS DISTORTING EXCESSIVELY.
   ELEMENT SPIRAL-1.1233 IS DISTORTING EXCESSIVELY.
   ELEMENT SPIRAL-1.1234 IS DISTORTING EXCESSIVELY.
   ELEMENT SPIRAL-1.1235 IS DISTORTING EXCESSIVELY.
   ELEMENT SPIRAL-1.1236 IS DISTORTING EXCESSIVELY.
   ELEMENT SPIRAL-1.1244 IS DISTORTING EXCESSIVELY.
   ELEMENT SPIRAL-1.1245 IS DISTORTING EXCESSIVELY.
   ELEMENT SPIRAL-1.1247 IS DISTORTING EXCESSIVELY.
   ELEMENT SPIRAL-1.1248 IS DISTORTING EXCESSIVELY.
   ELEMENT SPIRAL-1.1250 IS DISTORTING EXCESSIVELY.
   ELEMENT SPIRAL-1.1254 IS DISTORTING EXCESSIVELY.
   ELEMENT SPIRAL-1.1255 IS DISTORTING EXCESSIVELY.
   ELEMENT SPIRAL-1.1259 IS DISTORTING EXCESSIVELY.
   ELEMENT SPIRAL-1.1260 IS DISTORTING EXCESSIVELY.
   ELEMENT SPIRAL-1.1262 IS DISTORTING EXCESSIVELY.
   ELEMENT SPIRAL-1.1263 IS DISTORTING EXCESSIVELY.
   ELEMENT SPIRAL-1.1265 IS DISTORTING EXCESSIVELY.
   ELEMENT SPIRAL-1.1267 IS DISTORTING EXCESSIVELY.
   ELEMENT SPIRAL-1.1268 IS DISTORTING EXCESSIVELY.
   ELEMENT SPIRAL-1.1270 IS DISTORTING EXCESSIVELY.
   ELEMENT SPIRAL-1.1272 IS DISTORTING EXCESSIVELY.
   ELEMENT SPIRAL-1.1273 IS DISTORTING EXCESSIVELY.
   ELEMENT SPIRAL-1.1276 IS DISTORTING EXCESSIVELY.
   ELEMENT SPIRAL-1.1277 IS DISTORTING EXCESSIVELY.
   ELEMENT SPIRAL-1.1278 IS DISTORTING EXCESSIVELY.
   ELEMENT SPIRAL-1.1279 IS DISTORTING EXCESSIVELY.
   ELEMENT SPIRAL-1.1289 IS DISTORTING EXCESSIVELY.
   ELEMENT SPIRAL-1.1290 IS DISTORTING EXCESSIVELY.
   ELEMENT SPIRAL-1.1291 IS DISTORTING EXCESSIVELY.
   ELEMENT SPIRAL-1.1293 IS DISTORTING EXCESSIVELY.
   ELEMENT SPIRAL-1.1295 IS DISTORTING EXCESSIVELY.
   ELEMENT SPIRAL-1.1296 IS DISTORTING EXCESSIVELY.
   ELEMENT SPIRAL-1.1302 IS DISTORTING EXCESSIVELY.
   ELEMENT SPIRAL-1.1306 IS DISTORTING EXCESSIVELY.
   ELEMENT SPIRAL-1.1307 IS DISTORTING EXCESSIVELY.
   ELEMENT SPIRAL-1.1310 IS DISTORTING EXCESSIVELY.
   ELEMENT SPIRAL-1.1311 IS DISTORTING EXCESSIVELY.
   ELEMENT SPIRAL-1.1312 IS DISTORTING EXCESSIVELY.
   ELEMENT SPIRAL-1.1316 IS DISTORTING EXCESSIVELY.
   ELEMENT SPIRAL-1.1317 IS DISTORTING EXCESSIVELY.
   ELEMENT SPIRAL-1.1319 IS DISTORTING EXCESSIVELY.
   ELEMENT SPIRAL-1.1320 IS DISTORTING EXCESSIVELY.
   ELEMENT SPIRAL-1.1322 IS DISTORTING EXCESSIVELY.
   ELEMENT SPIRAL-1.1323 IS DISTORTING EXCESSIVELY.
   ELEMENT SPIRAL-1.1324 IS DISTORTING EXCESSIVELY.
   ELEMENT SPIRAL-1.1325 IS DISTORTING EXCESSIVELY.
   ELEMENT SPIRAL-1.1328 IS DISTORTING EXCESSIVELY.
   ELEMENT SPIRAL-1.1329 IS DISTORTING EXCESSIVELY.
   ELEMENT SPIRAL-1.1334 IS DISTORTING EXCESSIVELY.
   ELEMENT SPIRAL-1.1335 IS DISTORTING EXCESSIVELY.
   ELEMENT SPIRAL-1.1337 IS DISTORTING EXCESSIVELY.
   ELEMENT SPIRAL-1.1345 IS DISTORTING EXCESSIVELY.
   ELEMENT SPIRAL-1.1346 IS DISTORTING EXCESSIVELY.
   ELEMENT SPIRAL-1.1347 IS DISTORTING EXCESSIVELY.
   ELEMENT SPIRAL-1.1348 IS DISTORTING EXCESSIVELY.
   ELEMENT SPIRAL-1.1349 IS DISTORTING EXCESSIVELY.
   ELEMENT SPIRAL-1.1354 IS DISTORTING EXCESSIVELY.
   ELEMENT SPIRAL-1.1355 IS DISTORTING EXCESSIVELY.
   ELEMENT SPIRAL-1.1356 IS DISTORTING EXCESSIVELY.
   ELEMENT SPIRAL-1.1358 IS DISTORTING EXCESSIVELY.
   ELEMENT SPIRAL-1.1359 IS DISTORTING EXCESSIVELY.
   ELEMENT SPIRAL-1.1361 IS DISTORTING EXCESSIVELY.
   ELEMENT SPIRAL-1.1362 IS DISTORTING EXCESSIVELY.
   ELEMENT SPIRAL-1.1363 IS DISTORTING EXCESSIVELY.
   ELEMENT SPIRAL-1.1365 IS DISTORTING EXCESSIVELY.
   ELEMENT SPIRAL-1.1368 IS DISTORTING EXCESSIVELY.
   ELEMENT SPIRAL-1.1370 IS DISTORTING EXCESSIVELY.
   ELEMENT SPIRAL-1.1371 IS DISTORTING EXCESSIVELY.
   ELEMENT SPIRAL-1.1374 IS DISTORTING EXCESSIVELY.
   ELEMENT SPIRAL-1.1377 IS DISTORTING EXCESSIVELY.
   ELEMENT SPIRAL-1.1378 IS DISTORTING EXCESSIVELY.
   ELEMENT SPIRAL-1.1383 IS DISTORTING EXCESSIVELY.
   ELEMENT SPIRAL-1.1385 IS DISTORTING EXCESSIVELY.
   ELEMENT SPIRAL-1.1387 IS DISTORTING EXCESSIVELY.
   ELEMENT SPIRAL-1.1388 IS DISTORTING EXCESSIVELY.
   ELEMENT SPIRAL-1.1389 IS DISTORTING EXCESSIVELY.
   ELEMENT SPIRAL-1.1390 IS DISTORTING EXCESSIVELY.
   ELEMENT SPIRAL-1.1391 IS DISTORTING EXCESSIVELY.
   ELEMENT SPIRAL-1.1392 IS DISTORTING EXCESSIVELY.
   ELEMENT SPIRAL-1.1393 IS DISTORTING EXCESSIVELY.
   ELEMENT SPIRAL-1.1397 IS DISTORTING EXCESSIVELY.
   ELEMENT SPIRAL-1.1399 IS DISTORTING EXCESSIVELY.
   ELEMENT SPIRAL-1.1401 IS DISTORTING EXCESSIVELY.
   ELEMENT SPIRAL-1.1404 IS DISTORTING EXCESSIVELY.
   ELEMENT SPIRAL-1.1407 IS DISTORTING EXCESSIVELY.
   ELEMENT SPIRAL-1.1410 IS DISTORTING EXCESSIVELY.
   ELEMENT SPIRAL-1.1415 IS DISTORTING EXCESSIVELY.
   ELEMENT SPIRAL-1.1416 IS DISTORTING EXCESSIVELY.
   ELEMENT SPIRAL-1.1417 IS DISTORTING EXCESSIVELY.
   ELEMENT SPIRAL-1.1419 IS DISTORTING EXCESSIVELY.
   ELEMENT SPIRAL-1.1421 IS DISTORTING EXCESSIVELY.
   ELEMENT SPIRAL-1.1422 IS DISTORTING EXCESSIVELY.
   ELEMENT SPIRAL-1.1423 IS DISTORTING EXCESSIVELY.
   ELEMENT SPIRAL-1.1424 IS DISTORTING EXCESSIVELY.
   ELEMENT SPIRAL-1.1425 IS DISTORTING EXCESSIVELY.
   ELEMENT SPIRAL-1.1427 IS DISTORTING EXCESSIVELY.
   ELEMENT SPIRAL-1.1428 IS DISTORTING EXCESSIVELY.
   ELEMENT SPIRAL-1.1431 IS DISTORTING EXCESSIVELY.
   ELEMENT SPIRAL-1.1433 IS DISTORTING EXCESSIVELY.
   ELEMENT SPIRAL-1.1434 IS DISTORTING EXCESSIVELY.
   ELEMENT SPIRAL-1.1437 IS DISTORTING EXCESSIVELY.
   ELEMENT SPIRAL-1.1439 IS DISTORTING EXCESSIVELY.
   ELEMENT SPIRAL-1.1442 IS DISTORTING EXCESSIVELY.
   ELEMENT SPIRAL-1.1443 IS DISTORTING EXCESSIVELY.
   ELEMENT SPIRAL-1.1447 IS DISTORTING EXCESSIVELY.
   ELEMENT SPIRAL-1.1448 IS DISTORTING EXCESSIVELY.
   ELEMENT SPIRAL-1.1449 IS DISTORTING EXCESSIVELY.
   ELEMENT SPIRAL-1.1452 IS DISTORTING EXCESSIVELY.
   ELEMENT SPIRAL-1.1453 IS DISTORTING EXCESSIVELY.
   ELEMENT SPIRAL-1.1455 IS DISTORTING EXCESSIVELY.
   ELEMENT SPIRAL-1.1457 IS DISTORTING EXCESSIVELY.
   ELEMENT SPIRAL-1.1458 IS DISTORTING EXCESSIVELY.
   ELEMENT SPIRAL-1.1459 IS DISTORTING EXCESSIVELY.
   ELEMENT SPIRAL-1.1461 IS DISTORTING EXCESSIVELY.
   ELEMENT SPIRAL-1.1462 IS DISTORTING EXCESSIVELY.
   ELEMENT SPIRAL-1.1464 IS DISTORTING EXCESSIVELY.
   ELEMENT SPIRAL-1.1465 IS DISTORTING EXCESSIVELY.
   ELEMENT SPIRAL-1.1467 IS DISTORTING EXCESSIVELY.
   ELEMENT SPIRAL-1.1471 IS DISTORTING EXCESSIVELY.
   ELEMENT SPIRAL-1.1472 IS DISTORTING EXCESSIVELY.
   ELEMENT SPIRAL-1.1473 IS DISTORTING EXCESSIVELY.
   ELEMENT SPIRAL-1.1475 IS DISTORTING EXCESSIVELY.
   ELEMENT SPIRAL-1.1476 IS DISTORTING EXCESSIVELY.
   ELEMENT SPIRAL-1.1479 IS DISTORTING EXCESSIVELY.
   ELEMENT SPIRAL-1.1480 IS DISTORTING EXCESSIVELY.
   ELEMENT SPIRAL-1.1482 IS DISTORTING EXCESSIVELY.
   ELEMENT SPIRAL-1.1484 IS DISTORTING EXCESSIVELY.
   ELEMENT SPIRAL-1.1485 IS DISTORTING EXCESSIVELY.
   ELEMENT SPIRAL-1.1486 IS DISTORTING EXCESSIVELY.
   ELEMENT SPIRAL-1.1495 IS DISTORTING EXCESSIVELY.
   ELEMENT SPIRAL-1.1497 IS DISTORTING EXCESSIVELY.
   ELEMENT SPIRAL-1.1498 IS DISTORTING EXCESSIVELY.
   ELEMENT SPIRAL-1.1499 IS DISTORTING EXCESSIVELY.
   ELEMENT SPIRAL-1.1506 IS DISTORTING EXCESSIVELY.
   ELEMENT SPIRAL-1.1507 IS DISTORTING EXCESSIVELY.
   ELEMENT SPIRAL-1.1510 IS DISTORTING EXCESSIVELY.
   ELEMENT SPIRAL-1.1512 IS DISTORTING EXCESSIVELY.
   ELEMENT SPIRAL-1.1513 IS DISTORTING EXCESSIVELY.
   ELEMENT SPIRAL-1.1516 IS DISTORTING EXCESSIVELY.
   ELEMENT SPIRAL-1.1518 IS DISTORTING EXCESSIVELY.
   ELEMENT SPIRAL-1.1519 IS DISTORTING EXCESSIVELY.
   ELEMENT SPIRAL-1.1520 IS DISTORTING EXCESSIVELY.
   ELEMENT SPIRAL-1.1522 IS DISTORTING EXCESSIVELY.
   ELEMENT SPIRAL-1.1526 IS DISTORTING EXCESSIVELY.
   ELEMENT SPIRAL-1.1527 IS DISTORTING EXCESSIVELY.
   ELEMENT SPIRAL-1.1529 IS DISTORTING EXCESSIVELY.
   ELEMENT SPIRAL-1.1536 IS DISTORTING EXCESSIVELY.
   ELEMENT SPIRAL-1.1537 IS DISTORTING EXCESSIVELY.
   ELEMENT SPIRAL-1.1539 IS DISTORTING EXCESSIVELY.
   ELEMENT SPIRAL-1.1540 IS DISTORTING EXCESSIVELY.
   ELEMENT SPIRAL-1.1541 IS DISTORTING EXCESSIVELY.
   ELEMENT SPIRAL-1.1543 IS DISTORTING EXCESSIVELY.
   ELEMENT SPIRAL-1.1546 IS DISTORTING EXCESSIVELY.
   ELEMENT SPIRAL-1.1548 IS DISTORTING EXCESSIVELY.
   ELEMENT SPIRAL-1.1550 IS DISTORTING EXCESSIVELY.
   ELEMENT SPIRAL-1.1551 IS DISTORTING EXCESSIVELY.
   ELEMENT SPIRAL-1.1552 IS DISTORTING EXCESSIVELY.
   ELEMENT SPIRAL-1.1553 IS DISTORTING EXCESSIVELY.
   ELEMENT SPIRAL-1.1555 IS DISTORTING EXCESSIVELY.
   ELEMENT SPIRAL-1.1558 IS DISTORTING EXCESSIVELY.
   ELEMENT SPIRAL-1.1559 IS DISTORTING EXCESSIVELY.
   ELEMENT SPIRAL-1.1560 IS DISTORTING EXCESSIVELY.
   ELEMENT SPIRAL-1.1561 IS DISTORTING EXCESSIVELY.
   ELEMENT SPIRAL-1.1564 IS DISTORTING EXCESSIVELY.
   ELEMENT SPIRAL-1.1565 IS DISTORTING EXCESSIVELY.
   ELEMENT SPIRAL-1.1566 IS DISTORTING EXCESSIVELY.
   ELEMENT SPIRAL-1.1568 IS DISTORTING EXCESSIVELY.
   ELEMENT SPIRAL-1.1569 IS DISTORTING EXCESSIVELY.
   ELEMENT SPIRAL-1.1571 IS DISTORTING EXCESSIVELY.
   ELEMENT SPIRAL-1.1573 IS DISTORTING EXCESSIVELY.
   ELEMENT SPIRAL-1.1575 IS DISTORTING EXCESSIVELY.
   ELEMENT SPIRAL-1.1576 IS DISTORTING EXCESSIVELY.
   ELEMENT SPIRAL-1.1578 IS DISTORTING EXCESSIVELY.
   ELEMENT SPIRAL-1.1579 IS DISTORTING EXCESSIVELY.
   ELEMENT SPIRAL-1.1580 IS DISTORTING EXCESSIVELY.
   ELEMENT SPIRAL-1.1581 IS DISTORTING EXCESSIVELY.
   ELEMENT SPIRAL-1.1583 IS DISTORTING EXCESSIVELY.
   ELEMENT SPIRAL-1.1586 IS DISTORTING EXCESSIVELY.
   ELEMENT SPIRAL-1.1588 IS DISTORTING EXCESSIVELY.
   ELEMENT SPIRAL-1.1591 IS DISTORTING EXCESSIVELY.
   ELEMENT SPIRAL-1.1592 IS DISTORTING EXCESSIVELY.
   ELEMENT SPIRAL-1.1593 IS DISTORTING EXCESSIVELY.
   ELEMENT SPIRAL-1.1596 IS DISTORTING EXCESSIVELY.
   ELEMENT SPIRAL-1.1600 IS DISTORTING EXCESSIVELY.
   ELEMENT SPIRAL-1.1601 IS DISTORTING EXCESSIVELY.
   ELEMENT SPIRAL-1.1611 IS DISTORTING EXCESSIVELY.
   ELEMENT SPIRAL-1.1612 IS DISTORTING EXCESSIVELY.
   ELEMENT SPIRAL-1.1613 IS DISTORTING EXCESSIVELY.
   ELEMENT SPIRAL-1.1614 IS DISTORTING EXCESSIVELY.
   ELEMENT SPIRAL-1.1615 IS DISTORTING EXCESSIVELY.
   ELEMENT SPIRAL-1.1616 IS DISTORTING EXCESSIVELY.
   ELEMENT SPIRAL-1.1618 IS DISTORTING EXCESSIVELY.
   ELEMENT SPIRAL-1.1621 IS DISTORTING EXCESSIVELY.
   ELEMENT SPIRAL-1.1622 IS DISTORTING EXCESSIVELY.
   ELEMENT SPIRAL-1.1625 IS DISTORTING EXCESSIVELY.
   ELEMENT SPIRAL-1.1626 IS DISTORTING EXCESSIVELY.
   ELEMENT SPIRAL-1.1627 IS DISTORTING EXCESSIVELY.
   ELEMENT SPIRAL-1.1628 IS DISTORTING EXCESSIVELY.
   ELEMENT SPIRAL-1.1629 IS DISTORTING EXCESSIVELY.
   ELEMENT SPIRAL-1.1633 IS DISTORTING EXCESSIVELY.
   ELEMENT SPIRAL-1.1637 IS DISTORTING EXCESSIVELY.
   ELEMENT SPIRAL-1.1641 IS DISTORTING EXCESSIVELY.
   ELEMENT SPIRAL-1.1645 IS DISTORTING EXCESSIVELY.
   ELEMENT SPIRAL-1.1646 IS DISTORTING EXCESSIVELY.
   ELEMENT SPIRAL-1.1647 IS DISTORTING EXCESSIVELY.
   ELEMENT SPIRAL-1.1648 IS DISTORTING EXCESSIVELY.
   ELEMENT SPIRAL-1.1649 IS DISTORTING EXCESSIVELY.
   ELEMENT SPIRAL-1.1651 IS DISTORTING EXCESSIVELY.
   ELEMENT SPIRAL-1.1653 IS DISTORTING EXCESSIVELY.
   ELEMENT SPIRAL-1.1654 IS DISTORTING EXCESSIVELY.
   ELEMENT SPIRAL-1.1655 IS DISTORTING EXCESSIVELY.
   ELEMENT SPIRAL-1.1656 IS DISTORTING EXCESSIVELY.
   ELEMENT SPIRAL-1.1657 IS DISTORTING EXCESSIVELY.
   ELEMENT SPIRAL-1.1658 IS DISTORTING EXCESSIVELY.
   ELEMENT SPIRAL-1.1661 IS DISTORTING EXCESSIVELY.
   ELEMENT SPIRAL-1.1666 IS DISTORTING EXCESSIVELY.
   ELEMENT SPIRAL-1.1667 IS DISTORTING EXCESSIVELY.
   ELEMENT SPIRAL-1.1669 IS DISTORTING EXCESSIVELY.
   ELEMENT SPIRAL-1.1670 IS DISTORTING EXCESSIVELY.
   ELEMENT SPIRAL-1.1671 IS DISTORTING EXCESSIVELY.
   ELEMENT SPIRAL-1.1673 IS DISTORTING EXCESSIVELY.
   ELEMENT SPIRAL-1.1676 IS DISTORTING EXCESSIVELY.
   ELEMENT SPIRAL-1.1677 IS DISTORTING EXCESSIVELY.
   ELEMENT SPIRAL-1.1678 IS DISTORTING EXCESSIVELY.
   ELEMENT SPIRAL-1.1680 IS DISTORTING EXCESSIVELY.
   ELEMENT SPIRAL-1.1681 IS DISTORTING EXCESSIVELY.
   ELEMENT SPIRAL-1.1683 IS DISTORTING EXCESSIVELY.
   ELEMENT SPIRAL-1.1686 IS DISTORTING EXCESSIVELY.
   ELEMENT SPIRAL-1.1688 IS DISTORTING EXCESSIVELY.
   ELEMENT SPIRAL-1.1689 IS DISTORTING EXCESSIVELY.
   ELEMENT SPIRAL-1.1694 IS DISTORTING EXCESSIVELY.
   ELEMENT SPIRAL-1.1696 IS DISTORTING EXCESSIVELY.
   ELEMENT SPIRAL-1.1699 IS DISTORTING EXCESSIVELY.
   ELEMENT SPIRAL-1.1702 IS DISTORTING EXCESSIVELY.
   ELEMENT SPIRAL-1.1703 IS DISTORTING EXCESSIVELY.
   ELEMENT SPIRAL-1.1706 IS DISTORTING EXCESSIVELY.
   ELEMENT SPIRAL-1.1707 IS DISTORTING EXCESSIVELY.
   ELEMENT SPIRAL-1.1710 IS DISTORTING EXCESSIVELY.
   ELEMENT SPIRAL-1.1712 IS DISTORTING EXCESSIVELY.
   ELEMENT SPIRAL-1.1715 IS DISTORTING EXCESSIVELY.
   ELEMENT SPIRAL-1.1717 IS DISTORTING EXCESSIVELY.
   ELEMENT SPIRAL-1.1718 IS DISTORTING EXCESSIVELY.
   ELEMENT SPIRAL-1.1719 IS DISTORTING EXCESSIVELY.
   ELEMENT SPIRAL-1.1724 IS DISTORTING EXCESSIVELY.
   ELEMENT SPIRAL-1.1725 IS DISTORTING EXCESSIVELY.
   ELEMENT SPIRAL-1.1729 IS DISTORTING EXCESSIVELY.
   ELEMENT SPIRAL-1.1731 IS DISTORTING EXCESSIVELY.
   ELEMENT SPIRAL-1.1732 IS DISTORTING EXCESSIVELY.
   ELEMENT SPIRAL-1.1739 IS DISTORTING EXCESSIVELY.
   ELEMENT SPIRAL-1.1740 IS DISTORTING EXCESSIVELY.
   ELEMENT SPIRAL-1.1742 IS DISTORTING EXCESSIVELY.
   ELEMENT SPIRAL-1.1745 IS DISTORTING EXCESSIVELY.
   ELEMENT SPIRAL-1.1748 IS DISTORTING EXCESSIVELY.
   ELEMENT SPIRAL-1.1750 IS DISTORTING EXCESSIVELY.
   ELEMENT SPIRAL-1.1751 IS DISTORTING EXCESSIVELY.
   ELEMENT SPIRAL-1.1752 IS DISTORTING EXCESSIVELY.
   ELEMENT SPIRAL-1.1754 IS DISTORTING EXCESSIVELY.
   ELEMENT SPIRAL-1.1755 IS DISTORTING EXCESSIVELY.
   ELEMENT SPIRAL-1.1758 IS DISTORTING EXCESSIVELY.
   ELEMENT SPIRAL-1.1762 IS DISTORTING EXCESSIVELY.
   ELEMENT SPIRAL-1.1765 IS DISTORTING EXCESSIVELY.
   ELEMENT SPIRAL-1.1767 IS DISTORTING EXCESSIVELY.
   ELEMENT SPIRAL-1.1768 IS DISTORTING EXCESSIVELY.
   ELEMENT SPIRAL-1.1769 IS DISTORTING EXCESSIVELY.
   ELEMENT SPIRAL-1.1771 IS DISTORTING EXCESSIVELY.
   ELEMENT SPIRAL-1.1772 IS DISTORTING EXCESSIVELY.
   ELEMENT SPIRAL-1.1773 IS DISTORTING EXCESSIVELY.
   ELEMENT SPIRAL-1.1774 IS DISTORTING EXCESSIVELY.
   ELEMENT SPIRAL-1.1775 IS DISTORTING EXCESSIVELY.
   ELEMENT SPIRAL-1.1776 IS DISTORTING EXCESSIVELY.
   ELEMENT SPIRAL-1.1777 IS DISTORTING EXCESSIVELY.
   ELEMENT SPIRAL-1.1782 IS DISTORTING EXCESSIVELY.
   ELEMENT SPIRAL-1.1783 IS DISTORTING EXCESSIVELY.
   ELEMENT SPIRAL-1.1785 IS DISTORTING EXCESSIVELY.
   ELEMENT SPIRAL-1.1788 IS DISTORTING EXCESSIVELY.
   ELEMENT SPIRAL-1.1790 IS DISTORTING EXCESSIVELY.
   ELEMENT SPIRAL-1.1793 IS DISTORTING EXCESSIVELY.
   ELEMENT SPIRAL-1.1794 IS DISTORTING EXCESSIVELY.
   ELEMENT SPIRAL-1.1795 IS DISTORTING EXCESSIVELY.
   ELEMENT SPIRAL-1.1796 IS DISTORTING EXCESSIVELY.
   ELEMENT SPIRAL-1.1798 IS DISTORTING EXCESSIVELY.
   ELEMENT SPIRAL-1.1799 IS DISTORTING EXCESSIVELY.
   ELEMENT SPIRAL-1.1800 IS DISTORTING EXCESSIVELY.
   ELEMENT SPIRAL-1.1801 IS DISTORTING EXCESSIVELY.
   ELEMENT SPIRAL-1.1807 IS DISTORTING EXCESSIVELY.
   ELEMENT SPIRAL-1.1809 IS DISTORTING EXCESSIVELY.
   ELEMENT SPIRAL-1.1810 IS DISTORTING EXCESSIVELY.
   ELEMENT SPIRAL-1.1811 IS DISTORTING EXCESSIVELY.
   ELEMENT SPIRAL-1.1815 IS DISTORTING EXCESSIVELY.
   ELEMENT SPIRAL-1.1816 IS DISTORTING EXCESSIVELY.
   ELEMENT SPIRAL-1.1817 IS DISTORTING EXCESSIVELY.
   ELEMENT SPIRAL-1.1819 IS DISTORTING EXCESSIVELY.
   ELEMENT SPIRAL-1.1820 IS DISTORTING EXCESSIVELY.
   ELEMENT SPIRAL-1.1821 IS DISTORTING EXCESSIVELY.
   ELEMENT SPIRAL-1.1822 IS DISTORTING EXCESSIVELY.
   ELEMENT SPIRAL-1.1823 IS DISTORTING EXCESSIVELY.
   ELEMENT SPIRAL-1.1824 IS DISTORTING EXCESSIVELY.
   ELEMENT SPIRAL-1.1825 IS DISTORTING EXCESSIVELY.
   ELEMENT SPIRAL-1.1828 IS DISTORTING EXCESSIVELY.
   ELEMENT SPIRAL-1.1831 IS DISTORTING EXCESSIVELY.
   ELEMENT SPIRAL-1.1833 IS DISTORTING EXCESSIVELY.
   ELEMENT SPIRAL-1.1836 IS DISTORTING EXCESSIVELY.
   ELEMENT SPIRAL-1.1837 IS DISTORTING EXCESSIVELY.
   ELEMENT SPIRAL-1.1838 IS DISTORTING EXCESSIVELY.
   ELEMENT SPIRAL-1.1840 IS DISTORTING EXCESSIVELY.
   ELEMENT SPIRAL-1.1842 IS DISTORTING EXCESSIVELY.
   ELEMENT SPIRAL-1.1845 IS DISTORTING EXCESSIVELY.
   ELEMENT SPIRAL-1.1846 IS DISTORTING EXCESSIVELY.
   ELEMENT SPIRAL-1.1847 IS DISTORTING EXCESSIVELY.
   ELEMENT SPIRAL-1.1849 IS DISTORTING EXCESSIVELY.
   ELEMENT SPIRAL-1.1850 IS DISTORTING EXCESSIVELY.
   ELEMENT SPIRAL-1.1853 IS DISTORTING EXCESSIVELY.
   ELEMENT SPIRAL-1.1855 IS DISTORTING EXCESSIVELY.
   ELEMENT SPIRAL-1.1858 IS DISTORTING EXCESSIVELY.
   ELEMENT SPIRAL-1.1866 IS DISTORTING EXCESSIVELY.
   ELEMENT SPIRAL-1.1870 IS DISTORTING EXCESSIVELY.
   ELEMENT SPIRAL-1.1871 IS DISTORTING EXCESSIVELY.
   ELEMENT SPIRAL-1.1872 IS DISTORTING EXCESSIVELY.
   ELEMENT SPIRAL-1.1873 IS DISTORTING EXCESSIVELY.
   ELEMENT SPIRAL-1.1876 IS DISTORTING EXCESSIVELY.
   ELEMENT SPIRAL-1.1877 IS DISTORTING EXCESSIVELY.
   ELEMENT SPIRAL-1.1878 IS DISTORTING EXCESSIVELY.
   ELEMENT SPIRAL-1.1880 IS DISTORTING EXCESSIVELY.
   ELEMENT SPIRAL-1.1883 IS DISTORTING EXCESSIVELY.
   ELEMENT SPIRAL-1.1885 IS DISTORTING EXCESSIVELY.
   ELEMENT SPIRAL-1.1886 IS DISTORTING EXCESSIVELY.
   ELEMENT SPIRAL-1.1889 IS DISTORTING EXCESSIVELY.
   ELEMENT SPIRAL-1.1890 IS DISTORTING EXCESSIVELY.
   ELEMENT SPIRAL-1.1892 IS DISTORTING EXCESSIVELY.
   ELEMENT SPIRAL-1.1895 IS DISTORTING EXCESSIVELY.
   ELEMENT SPIRAL-1.1899 IS DISTORTING EXCESSIVELY.
   ELEMENT SPIRAL-1.1900 IS DISTORTING EXCESSIVELY.
   ELEMENT SPIRAL-1.1902 IS DISTORTING EXCESSIVELY.
   ELEMENT SPIRAL-1.1903 IS DISTORTING EXCESSIVELY.
   ELEMENT SPIRAL-1.1906 IS DISTORTING EXCESSIVELY.
   ELEMENT SPIRAL-1.1907 IS DISTORTING EXCESSIVELY.
   ELEMENT SPIRAL-1.1909 IS DISTORTING EXCESSIVELY.
   ELEMENT SPIRAL-1.1911 IS DISTORTING EXCESSIVELY.
   ELEMENT SPIRAL-1.1913 IS DISTORTING EXCESSIVELY.
   ELEMENT SPIRAL-1.1914 IS DISTORTING EXCESSIVELY.
   ELEMENT SPIRAL-1.1915 IS DISTORTING EXCESSIVELY.
   ELEMENT SPIRAL-1.1919 IS DISTORTING EXCESSIVELY.
   ELEMENT SPIRAL-1.1923 IS DISTORTING EXCESSIVELY.
   ELEMENT SPIRAL-1.1924 IS DISTORTING EXCESSIVELY.
   ELEMENT SPIRAL-1.1925 IS DISTORTING EXCESSIVELY.
   ELEMENT SPIRAL-1.1926 IS DISTORTING EXCESSIVELY.
   ELEMENT SPIRAL-1.1927 IS DISTORTING EXCESSIVELY.
   ELEMENT SPIRAL-1.1928 IS DISTORTING EXCESSIVELY.
   ELEMENT SPIRAL-1.1931 IS DISTORTING EXCESSIVELY.
   ELEMENT SPIRAL-1.1933 IS DISTORTING EXCESSIVELY.
   ELEMENT SPIRAL-1.1935 IS DISTORTING EXCESSIVELY.
   ELEMENT SPIRAL-1.1936 IS DISTORTING EXCESSIVELY.
   ELEMENT SPIRAL-1.1937 IS DISTORTING EXCESSIVELY.
   ELEMENT SPIRAL-1.1938 IS DISTORTING EXCESSIVELY.
   ELEMENT SPIRAL-1.1940 IS DISTORTING EXCESSIVELY.
   ELEMENT SPIRAL-1.1944 IS DISTORTING EXCESSIVELY.
   ELEMENT SPIRAL-1.1945 IS DISTORTING EXCESSIVELY.
   ELEMENT SPIRAL-1.1946 IS DISTORTING EXCESSIVELY.
   ELEMENT SPIRAL-1.1947 IS DISTORTING EXCESSIVELY.
   ELEMENT SPIRAL-1.1948 IS DISTORTING EXCESSIVELY.
   ELEMENT SPIRAL-1.1952 IS DISTORTING EXCESSIVELY.
   ELEMENT SPIRAL-1.1956 IS DISTORTING EXCESSIVELY.
   ELEMENT SPIRAL-1.1958 IS DISTORTING EXCESSIVELY.
   ELEMENT SPIRAL-1.1959 IS DISTORTING EXCESSIVELY.
   ELEMENT SPIRAL-1.1960 IS DISTORTING EXCESSIVELY.
   ELEMENT SPIRAL-1.1961 IS DISTORTING EXCESSIVELY.
   ELEMENT SPIRAL-1.1968 IS DISTORTING EXCESSIVELY.
   ELEMENT SPIRAL-1.1973 IS DISTORTING EXCESSIVELY.
   ELEMENT SPIRAL-1.1974 IS DISTORTING EXCESSIVELY.
   ELEMENT SPIRAL-1.1975 IS DISTORTING EXCESSIVELY.
   ELEMENT SPIRAL-1.1977 IS DISTORTING EXCESSIVELY.
   ELEMENT SPIRAL-1.1979 IS DISTORTING EXCESSIVELY.
   ELEMENT SPIRAL-1.1980 IS DISTORTING EXCESSIVELY.
   ELEMENT SPIRAL-1.1982 IS DISTORTING EXCESSIVELY.
   ELEMENT SPIRAL-1.1984 IS DISTORTING EXCESSIVELY.
   ELEMENT SPIRAL-1.1987 IS DISTORTING EXCESSIVELY.
   ELEMENT SPIRAL-1.1989 IS DISTORTING EXCESSIVELY.
   ELEMENT SPIRAL-1.1990 IS DISTORTING EXCESSIVELY.
   ELEMENT SPIRAL-1.1992 IS DISTORTING EXCESSIVELY.
   ELEMENT SPIRAL-1.1994 IS DISTORTING EXCESSIVELY.
   ELEMENT SPIRAL-1.1996 IS DISTORTING EXCESSIVELY.
   ELEMENT SPIRAL-1.1999 IS DISTORTING EXCESSIVELY.
   ELEMENT SPIRAL-1.2002 IS DISTORTING EXCESSIVELY.
   ELEMENT SPIRAL-1.2004 IS DISTORTING EXCESSIVELY.
   ELEMENT SPIRAL-1.2005 IS DISTORTING EXCESSIVELY.
   ELEMENT SPIRAL-1.2006 IS DISTORTING EXCESSIVELY.
   ELEMENT SPIRAL-1.2007 IS DISTORTING EXCESSIVELY.
   ELEMENT SPIRAL-1.2008 IS DISTORTING EXCESSIVELY.
   ELEMENT SPIRAL-1.2009 IS DISTORTING EXCESSIVELY.
   ELEMENT SPIRAL-1.2011 IS DISTORTING EXCESSIVELY.
   ELEMENT SPIRAL-1.2014 IS DISTORTING EXCESSIVELY.
   ELEMENT SPIRAL-1.2016 IS DISTORTING EXCESSIVELY.
   ELEMENT SPIRAL-1.2018 IS DISTORTING EXCESSIVELY.
   ELEMENT SPIRAL-1.2020 IS DISTORTING EXCESSIVELY.
   ELEMENT SPIRAL-1.2021 IS DISTORTING EXCESSIVELY.
   ELEMENT SPIRAL-1.2022 IS DISTORTING EXCESSIVELY.
   ELEMENT SPIRAL-1.2023 IS DISTORTING EXCESSIVELY.
   ELEMENT SPIRAL-1.2024 IS DISTORTING EXCESSIVELY.
   ELEMENT SPIRAL-1.2026 IS DISTORTING EXCESSIVELY.
   ELEMENT SPIRAL-1.2027 IS DISTORTING EXCESSIVELY.
   ELEMENT SPIRAL-1.2028 IS DISTORTING EXCESSIVELY.
   ELEMENT SPIRAL-1.2030 IS DISTORTING EXCESSIVELY.
   ELEMENT SPIRAL-1.2032 IS DISTORTING EXCESSIVELY.
   ELEMENT SPIRAL-1.2033 IS DISTORTING EXCESSIVELY.
   ELEMENT SPIRAL-1.2035 IS DISTORTING EXCESSIVELY.
   ELEMENT SPIRAL-1.2036 IS DISTORTING EXCESSIVELY.
   ELEMENT SPIRAL-1.2037 IS DISTORTING EXCESSIVELY.
   ELEMENT SPIRAL-1.2039 IS DISTORTING EXCESSIVELY.
   ELEMENT SPIRAL-1.2040 IS DISTORTING EXCESSIVELY.
   ELEMENT SPIRAL-1.2043 IS DISTORTING EXCESSIVELY.
   ELEMENT SPIRAL-1.2046 IS DISTORTING EXCESSIVELY.
   ELEMENT SPIRAL-1.2048 IS DISTORTING EXCESSIVELY.
   ELEMENT SPIRAL-1.2050 IS DISTORTING EXCESSIVELY.
   ELEMENT SPIRAL-1.2054 IS DISTORTING EXCESSIVELY.
   ELEMENT SPIRAL-1.2055 IS DISTORTING EXCESSIVELY.
   ELEMENT SPIRAL-1.2059 IS DISTORTING EXCESSIVELY.
   ELEMENT SPIRAL-1.2060 IS DISTORTING EXCESSIVELY.
   ELEMENT SPIRAL-1.2061 IS DISTORTING EXCESSIVELY.
   ELEMENT SPIRAL-1.2063 IS DISTORTING EXCESSIVELY.
   ELEMENT SPIRAL-1.2064 IS DISTORTING EXCESSIVELY.
   ELEMENT SPIRAL-1.2065 IS DISTORTING EXCESSIVELY.
   ELEMENT SPIRAL-1.2067 IS DISTORTING EXCESSIVELY.
   ELEMENT SPIRAL-1.2071 IS DISTORTING EXCESSIVELY.
   ELEMENT SPIRAL-1.2076 IS DISTORTING EXCESSIVELY.
   ELEMENT SPIRAL-1.2078 IS DISTORTING EXCESSIVELY.
   ELEMENT SPIRAL-1.2079 IS DISTORTING EXCESSIVELY.
   ELEMENT SPIRAL-1.2081 IS DISTORTING EXCESSIVELY.
   ELEMENT SPIRAL-1.2082 IS DISTORTING EXCESSIVELY.
   ELEMENT SPIRAL-1.2084 IS DISTORTING EXCESSIVELY.
   ELEMENT SPIRAL-1.2086 IS DISTORTING EXCESSIVELY.
   ELEMENT SPIRAL-1.2089 IS DISTORTING EXCESSIVELY.
   ELEMENT SPIRAL-1.2092 IS DISTORTING EXCESSIVELY.
   ELEMENT SPIRAL-1.2093 IS DISTORTING EXCESSIVELY.
   ELEMENT SPIRAL-1.2094 IS DISTORTING EXCESSIVELY.
   ELEMENT SPIRAL-1.2096 IS DISTORTING EXCESSIVELY.
   ELEMENT SPIRAL-1.2097 IS DISTORTING EXCESSIVELY.
   ELEMENT SPIRAL-1.2102 IS DISTORTING EXCESSIVELY.
   ELEMENT SPIRAL-1.2103 IS DISTORTING EXCESSIVELY.
   ELEMENT SPIRAL-1.2108 IS DISTORTING EXCESSIVELY.
   ELEMENT SPIRAL-1.2113 IS DISTORTING EXCESSIVELY.
   ELEMENT SPIRAL-1.2114 IS DISTORTING EXCESSIVELY.
   ELEMENT SPIRAL-1.2117 IS DISTORTING EXCESSIVELY.
   ELEMENT SPIRAL-1.2118 IS DISTORTING EXCESSIVELY.
   ELEMENT SPIRAL-1.2119 IS DISTORTING EXCESSIVELY.
   ELEMENT SPIRAL-1.2120 IS DISTORTING EXCESSIVELY.
   ELEMENT SPIRAL-1.2122 IS DISTORTING EXCESSIVELY.
   ELEMENT SPIRAL-1.2124 IS DISTORTING EXCESSIVELY.
   ELEMENT SPIRAL-1.2126 IS DISTORTING EXCESSIVELY.
   ELEMENT SPIRAL-1.2129 IS DISTORTING EXCESSIVELY.
   ELEMENT SPIRAL-1.2130 IS DISTORTING EXCESSIVELY.
   ELEMENT SPIRAL-1.2131 IS DISTORTING EXCESSIVELY.
   ELEMENT SPIRAL-1.2132 IS DISTORTING EXCESSIVELY.
   ELEMENT SPIRAL-1.2133 IS DISTORTING EXCESSIVELY.
   ELEMENT SPIRAL-1.2136 IS DISTORTING EXCESSIVELY.
   ELEMENT SPIRAL-1.2140 IS DISTORTING EXCESSIVELY.
   ELEMENT SPIRAL-1.2141 IS DISTORTING EXCESSIVELY.
   ELEMENT SPIRAL-1.2142 IS DISTORTING EXCESSIVELY.
   ELEMENT SPIRAL-1.2145 IS DISTORTING EXCESSIVELY.
   ELEMENT SPIRAL-1.2146 IS DISTORTING EXCESSIVELY.
   ELEMENT SPIRAL-1.2147 IS DISTORTING EXCESSIVELY.
   ELEMENT SPIRAL-1.2148 IS DISTORTING EXCESSIVELY.
   ELEMENT SPIRAL-1.2151 IS DISTORTING EXCESSIVELY.
   ELEMENT SPIRAL-1.2153 IS DISTORTING EXCESSIVELY.
   ELEMENT SPIRAL-1.2156 IS DISTORTING EXCESSIVELY.
   ELEMENT SPIRAL-1.2158 IS DISTORTING EXCESSIVELY.
   ELEMENT SPIRAL-1.2159 IS DISTORTING EXCESSIVELY.
   ELEMENT SPIRAL-1.2161 IS DISTORTING EXCESSIVELY.
   ELEMENT SPIRAL-1.2162 IS DISTORTING EXCESSIVELY.
   ELEMENT SPIRAL-1.2163 IS DISTORTING EXCESSIVELY.
   ELEMENT SPIRAL-1.2164 IS DISTORTING EXCESSIVELY.
   ELEMENT SPIRAL-1.2165 IS DISTORTING EXCESSIVELY.
   ELEMENT SPIRAL-1.2166 IS DISTORTING EXCESSIVELY.
   ELEMENT SPIRAL-1.2167 IS DISTORTING EXCESSIVELY.
   ELEMENT SPIRAL-1.2169 IS DISTORTING EXCESSIVELY.
   ELEMENT SPIRAL-1.2170 IS DISTORTING EXCESSIVELY.
   ELEMENT SPIRAL-1.2174 IS DISTORTING EXCESSIVELY.
   ELEMENT SPIRAL-1.2176 IS DISTORTING EXCESSIVELY.
   ELEMENT SPIRAL-1.2177 IS DISTORTING EXCESSIVELY.
   ELEMENT SPIRAL-1.2179 IS DISTORTING EXCESSIVELY.
   ELEMENT SPIRAL-1.2181 IS DISTORTING EXCESSIVELY.
   ELEMENT SPIRAL-1.2182 IS DISTORTING EXCESSIVELY.
   ELEMENT SPIRAL-1.2183 IS DISTORTING EXCESSIVELY.
   ELEMENT SPIRAL-1.2185 IS DISTORTING EXCESSIVELY.
   ELEMENT SPIRAL-1.2188 IS DISTORTING EXCESSIVELY.
   ELEMENT SPIRAL-1.2190 IS DISTORTING EXCESSIVELY.
   ELEMENT SPIRAL-1.2191 IS DISTORTING EXCESSIVELY.
   ELEMENT SPIRAL-1.2192 IS DISTORTING EXCESSIVELY.
   ELEMENT SPIRAL-1.2193 IS DISTORTING EXCESSIVELY.
   ELEMENT SPIRAL-1.2194 IS DISTORTING EXCESSIVELY.
   ELEMENT SPIRAL-1.2195 IS DISTORTING EXCESSIVELY.
   ELEMENT SPIRAL-1.2196 IS DISTORTING EXCESSIVELY.
   ELEMENT SPIRAL-1.2202 IS DISTORTING EXCESSIVELY.
   ELEMENT SPIRAL-1.2205 IS DISTORTING EXCESSIVELY.
   ELEMENT SPIRAL-1.2206 IS DISTORTING EXCESSIVELY.
   ELEMENT SPIRAL-1.2207 IS DISTORTING EXCESSIVELY.
   ELEMENT SPIRAL-1.2208 IS DISTORTING EXCESSIVELY.
   ELEMENT SPIRAL-1.2209 IS DISTORTING EXCESSIVELY.
   ELEMENT SPIRAL-1.2210 IS DISTORTING EXCESSIVELY.
   ELEMENT SPIRAL-1.2213 IS DISTORTING EXCESSIVELY.
   ELEMENT SPIRAL-1.2215 IS DISTORTING EXCESSIVELY.
   ELEMENT SPIRAL-1.2217 IS DISTORTING EXCESSIVELY.
   ELEMENT SPIRAL-1.2218 IS DISTORTING EXCESSIVELY.
   ELEMENT SPIRAL-1.2222 IS DISTORTING EXCESSIVELY.
   ELEMENT SPIRAL-1.2224 IS DISTORTING EXCESSIVELY.
   ELEMENT SPIRAL-1.2225 IS DISTORTING EXCESSIVELY.
   ELEMENT SPIRAL-1.2226 IS DISTORTING EXCESSIVELY.
   ELEMENT SPIRAL-1.2227 IS DISTORTING EXCESSIVELY.
   ELEMENT SPIRAL-1.2228 IS DISTORTING EXCESSIVELY.
   ELEMENT SPIRAL-1.2231 IS DISTORTING EXCESSIVELY.
   ELEMENT SPIRAL-1.2232 IS DISTORTING EXCESSIVELY.
   ELEMENT SPIRAL-1.2233 IS DISTORTING EXCESSIVELY.
   ELEMENT SPIRAL-1.2241 IS DISTORTING EXCESSIVELY.
   ELEMENT SPIRAL-1.2243 IS DISTORTING EXCESSIVELY.
   ELEMENT SPIRAL-1.2244 IS DISTORTING EXCESSIVELY.
   ELEMENT SPIRAL-1.2245 IS DISTORTING EXCESSIVELY.
   ELEMENT SPIRAL-1.2246 IS DISTORTING EXCESSIVELY.
   ELEMENT SPIRAL-1.2248 IS DISTORTING EXCESSIVELY.
   ELEMENT SPIRAL-1.2252 IS DISTORTING EXCESSIVELY.
   ELEMENT SPIRAL-1.2253 IS DISTORTING EXCESSIVELY.
   ELEMENT SPIRAL-1.2255 IS DISTORTING EXCESSIVELY.
   ELEMENT SPIRAL-1.2256 IS DISTORTING EXCESSIVELY.
   ELEMENT SPIRAL-1.2257 IS DISTORTING EXCESSIVELY.
   ELEMENT SPIRAL-1.2258 IS DISTORTING EXCESSIVELY.
   ELEMENT SPIRAL-1.2259 IS DISTORTING EXCESSIVELY.
   ELEMENT SPIRAL-1.2261 IS DISTORTING EXCESSIVELY.
   ELEMENT SPIRAL-1.2265 IS DISTORTING EXCESSIVELY.
   ELEMENT SPIRAL-1.2269 IS DISTORTING EXCESSIVELY.
   ELEMENT SPIRAL-1.2271 IS DISTORTING EXCESSIVELY.
   ELEMENT SPIRAL-1.2273 IS DISTORTING EXCESSIVELY.
   ELEMENT SPIRAL-1.2274 IS DISTORTING EXCESSIVELY.
   ELEMENT SPIRAL-1.2276 IS DISTORTING EXCESSIVELY.
   ELEMENT SPIRAL-1.2277 IS DISTORTING EXCESSIVELY.
   ELEMENT SPIRAL-1.2279 IS DISTORTING EXCESSIVELY.
   ELEMENT SPIRAL-1.2280 IS DISTORTING EXCESSIVELY.
   ELEMENT SPIRAL-1.2281 IS DISTORTING EXCESSIVELY.
   ELEMENT SPIRAL-1.2283 IS DISTORTING EXCESSIVELY.
   ELEMENT SPIRAL-1.2286 IS DISTORTING EXCESSIVELY.
   ELEMENT SPIRAL-1.2290 IS DISTORTING EXCESSIVELY.
   ELEMENT SPIRAL-1.2291 IS DISTORTING EXCESSIVELY.
   ELEMENT SPIRAL-1.2292 IS DISTORTING EXCESSIVELY.
   ELEMENT SPIRAL-1.2294 IS DISTORTING EXCESSIVELY.
   ELEMENT SPIRAL-1.2298 IS DISTORTING EXCESSIVELY.
   ELEMENT SPIRAL-1.2300 IS DISTORTING EXCESSIVELY.
   ELEMENT SPIRAL-1.2303 IS DISTORTING EXCESSIVELY.
   ELEMENT SPIRAL-1.2306 IS DISTORTING EXCESSIVELY.
   ELEMENT SPIRAL-1.2308 IS DISTORTING EXCESSIVELY.
   ELEMENT SPIRAL-1.2310 IS DISTORTING EXCESSIVELY.
   ELEMENT SPIRAL-1.2315 IS DISTORTING EXCESSIVELY.
   ELEMENT SPIRAL-1.2316 IS DISTORTING EXCESSIVELY.
   ELEMENT SPIRAL-1.2320 IS DISTORTING EXCESSIVELY.
   ELEMENT SPIRAL-1.2323 IS DISTORTING EXCESSIVELY.
   ELEMENT SPIRAL-1.2324 IS DISTORTING EXCESSIVELY.
   ELEMENT SPIRAL-1.2326 IS DISTORTING EXCESSIVELY.
   ELEMENT SPIRAL-1.2327 IS DISTORTING EXCESSIVELY.
   ELEMENT SPIRAL-1.2328 IS DISTORTING EXCESSIVELY.
   ELEMENT SPIRAL-1.2330 IS DISTORTING EXCESSIVELY.
   ELEMENT SPIRAL-1.2332 IS DISTORTING EXCESSIVELY.
   ELEMENT SPIRAL-1.2333 IS DISTORTING EXCESSIVELY.
   ELEMENT SPIRAL-1.2335 IS DISTORTING EXCESSIVELY.
   ELEMENT SPIRAL-1.2336 IS DISTORTING EXCESSIVELY.
   ELEMENT SPIRAL-1.2337 IS DISTORTING EXCESSIVELY.
   ELEMENT SPIRAL-1.2340 IS DISTORTING EXCESSIVELY.
   ELEMENT SPIRAL-1.2341 IS DISTORTING EXCESSIVELY.
   ELEMENT SPIRAL-1.2345 IS DISTORTING EXCESSIVELY.
   ELEMENT SPIRAL-1.2347 IS DISTORTING EXCESSIVELY.
   ELEMENT SPIRAL-1.2349 IS DISTORTING EXCESSIVELY.
   ELEMENT SPIRAL-1.2351 IS DISTORTING EXCESSIVELY.
   ELEMENT SPIRAL-1.2357 IS DISTORTING EXCESSIVELY.
   ELEMENT SPIRAL-1.2360 IS DISTORTING EXCESSIVELY.
   ELEMENT SPIRAL-1.2361 IS DISTORTING EXCESSIVELY.
   ELEMENT SPIRAL-1.2362 IS DISTORTING EXCESSIVELY.
   ELEMENT SPIRAL-1.2364 IS DISTORTING EXCESSIVELY.
   ELEMENT SPIRAL-1.2365 IS DISTORTING EXCESSIVELY.
   ELEMENT SPIRAL-1.2366 IS DISTORTING EXCESSIVELY.
   ELEMENT SPIRAL-1.2367 IS DISTORTING EXCESSIVELY.
   ELEMENT SPIRAL-1.2370 IS DISTORTING EXCESSIVELY.
   ELEMENT SPIRAL-1.2371 IS DISTORTING EXCESSIVELY.
   ELEMENT SPIRAL-1.2373 IS DISTORTING EXCESSIVELY.
   ELEMENT SPIRAL-1.2374 IS DISTORTING EXCESSIVELY.
   ELEMENT SPIRAL-1.2381 IS DISTORTING EXCESSIVELY.
   ELEMENT SPIRAL-1.2382 IS DISTORTING EXCESSIVELY.
   ELEMENT SPIRAL-1.2384 IS DISTORTING EXCESSIVELY.
   ELEMENT SPIRAL-1.2386 IS DISTORTING EXCESSIVELY.
   ELEMENT SPIRAL-1.2387 IS DISTORTING EXCESSIVELY.
   ELEMENT SPIRAL-1.2388 IS DISTORTING EXCESSIVELY.
   ELEMENT SPIRAL-1.2392 IS DISTORTING EXCESSIVELY.
   ELEMENT SPIRAL-1.2395 IS DISTORTING EXCESSIVELY.
   ELEMENT SPIRAL-1.2396 IS DISTORTING EXCESSIVELY.
   ELEMENT SPIRAL-1.2397 IS DISTORTING EXCESSIVELY.
   ELEMENT SPIRAL-1.2398 IS DISTORTING EXCESSIVELY.
   ELEMENT SPIRAL-1.2400 IS DISTORTING EXCESSIVELY.
   ELEMENT SPIRAL-1.2401 IS DISTORTING EXCESSIVELY.
   ELEMENT SPIRAL-1.2403 IS DISTORTING EXCESSIVELY.
   ELEMENT SPIRAL-1.2407 IS DISTORTING EXCESSIVELY.
   ELEMENT SPIRAL-1.2408 IS DISTORTING EXCESSIVELY.
   ELEMENT SPIRAL-1.2409 IS DISTORTING EXCESSIVELY.
   ELEMENT SPIRAL-1.2411 IS DISTORTING EXCESSIVELY.
   ELEMENT SPIRAL-1.2412 IS DISTORTING EXCESSIVELY.
   ELEMENT SPIRAL-1.2415 IS DISTORTING EXCESSIVELY.
   ELEMENT SPIRAL-1.2416 IS DISTORTING EXCESSIVELY.
   ELEMENT SPIRAL-1.2419 IS DISTORTING EXCESSIVELY.
   ELEMENT SPIRAL-1.2421 IS DISTORTING EXCESSIVELY.
   ELEMENT SPIRAL-1.2422 IS DISTORTING EXCESSIVELY.
   ELEMENT SPIRAL-1.2423 IS DISTORTING EXCESSIVELY.
   ELEMENT SPIRAL-1.2426 IS DISTORTING EXCESSIVELY.
   ELEMENT SPIRAL-1.2428 IS DISTORTING EXCESSIVELY.
   ELEMENT SPIRAL-1.2429 IS DISTORTING EXCESSIVELY.
   ELEMENT SPIRAL-1.2431 IS DISTORTING EXCESSIVELY.
   ELEMENT SPIRAL-1.2434 IS DISTORTING EXCESSIVELY.
   ELEMENT SPIRAL-1.2438 IS DISTORTING EXCESSIVELY.
   ELEMENT SPIRAL-1.2440 IS DISTORTING EXCESSIVELY.
   ELEMENT SPIRAL-1.2441 IS DISTORTING EXCESSIVELY.
   ELEMENT SPIRAL-1.2442 IS DISTORTING EXCESSIVELY.
   ELEMENT SPIRAL-1.2446 IS DISTORTING EXCESSIVELY.
   ELEMENT SPIRAL-1.2450 IS DISTORTING EXCESSIVELY.
   ELEMENT SPIRAL-1.2452 IS DISTORTING EXCESSIVELY.
   ELEMENT SPIRAL-1.2453 IS DISTORTING EXCESSIVELY.
   ELEMENT SPIRAL-1.2454 IS DISTORTING EXCESSIVELY.
   ELEMENT SPIRAL-1.2459 IS DISTORTING EXCESSIVELY.
   ELEMENT SPIRAL-1.2460 IS DISTORTING EXCESSIVELY.
   ELEMENT SPIRAL-1.2462 IS DISTORTING EXCESSIVELY.
   ELEMENT SPIRAL-1.2466 IS DISTORTING EXCESSIVELY.
   ELEMENT SPIRAL-1.2467 IS DISTORTING EXCESSIVELY.
   ELEMENT SPIRAL-1.2470 IS DISTORTING EXCESSIVELY.
   ELEMENT SPIRAL-1.2474 IS DISTORTING EXCESSIVELY.
   ELEMENT SPIRAL-1.2476 IS DISTORTING EXCESSIVELY.
   ELEMENT SPIRAL-1.2478 IS DISTORTING EXCESSIVELY.
   ELEMENT SPIRAL-1.2480 IS DISTORTING EXCESSIVELY.
   ELEMENT SPIRAL-1.2481 IS DISTORTING EXCESSIVELY.
   ELEMENT SPIRAL-1.2482 IS DISTORTING EXCESSIVELY.
   ELEMENT SPIRAL-1.2484 IS DISTORTING EXCESSIVELY.
   ELEMENT SPIRAL-1.2486 IS DISTORTING EXCESSIVELY.
   ELEMENT SPIRAL-1.2488 IS DISTORTING EXCESSIVELY.
   ELEMENT SPIRAL-1.2489 IS DISTORTING EXCESSIVELY.
   ELEMENT SPIRAL-1.2492 IS DISTORTING EXCESSIVELY.
   ELEMENT SPIRAL-1.2494 IS DISTORTING EXCESSIVELY.
   ELEMENT SPIRAL-1.2495 IS DISTORTING EXCESSIVELY.
   ELEMENT SPIRAL-1.2496 IS DISTORTING EXCESSIVELY.
   ELEMENT SPIRAL-1.2497 IS DISTORTING EXCESSIVELY.
   ELEMENT SPIRAL-1.2499 IS DISTORTING EXCESSIVELY.
   ELEMENT SPIRAL-1.2500 IS DISTORTING EXCESSIVELY.
   ELEMENT SPIRAL-1.2501 IS DISTORTING EXCESSIVELY.
   ELEMENT SPIRAL-1.2503 IS DISTORTING EXCESSIVELY.
   ELEMENT SPIRAL-1.2504 IS DISTORTING EXCESSIVELY.
   ELEMENT SPIRAL-1.2505 IS DISTORTING EXCESSIVELY.
   ELEMENT SPIRAL-1.2507 IS DISTORTING EXCESSIVELY.
   ELEMENT SPIRAL-1.2509 IS DISTORTING EXCESSIVELY.
   ELEMENT SPIRAL-1.2512 IS DISTORTING EXCESSIVELY.
   ELEMENT SPIRAL-1.2513 IS DISTORTING EXCESSIVELY.
   ELEMENT SPIRAL-1.2514 IS DISTORTING EXCESSIVELY.
   ELEMENT SPIRAL-1.2516 IS DISTORTING EXCESSIVELY.
   ELEMENT SPIRAL-1.2518 IS DISTORTING EXCESSIVELY.
   ELEMENT SPIRAL-1.2521 IS DISTORTING EXCESSIVELY.
   ELEMENT SPIRAL-1.2527 IS DISTORTING EXCESSIVELY.
   ELEMENT SPIRAL-1.2530 IS DISTORTING EXCESSIVELY.
   ELEMENT SPIRAL-1.2531 IS DISTORTING EXCESSIVELY.
   ELEMENT SPIRAL-1.2534 IS DISTORTING EXCESSIVELY.
   ELEMENT SPIRAL-1.2535 IS DISTORTING EXCESSIVELY.
   ELEMENT SPIRAL-1.2538 IS DISTORTING EXCESSIVELY.
   ELEMENT SPIRAL-1.2539 IS DISTORTING EXCESSIVELY.
   ELEMENT SPIRAL-1.2544 IS DISTORTING EXCESSIVELY.
   ELEMENT SPIRAL-1.2545 IS DISTORTING EXCESSIVELY.
   ELEMENT SPIRAL-1.2546 IS DISTORTING EXCESSIVELY.
   ELEMENT SPIRAL-1.2547 IS DISTORTING EXCESSIVELY.
   ELEMENT SPIRAL-1.2548 IS DISTORTING EXCESSIVELY.
   ELEMENT SPIRAL-1.2552 IS DISTORTING EXCESSIVELY.
   ELEMENT SPIRAL-1.2554 IS DISTORTING EXCESSIVELY.
   ELEMENT SPIRAL-1.2556 IS DISTORTING EXCESSIVELY.
   ELEMENT SPIRAL-1.2560 IS DISTORTING EXCESSIVELY.
   ELEMENT SPIRAL-1.2562 IS DISTORTING EXCESSIVELY.
   ELEMENT SPIRAL-1.2568 IS DISTORTING EXCESSIVELY.
   ELEMENT SPIRAL-1.2569 IS DISTORTING EXCESSIVELY.
   ELEMENT SPIRAL-1.2571 IS DISTORTING EXCESSIVELY.
   ELEMENT SPIRAL-1.2573 IS DISTORTING EXCESSIVELY.
   ELEMENT SPIRAL-1.2575 IS DISTORTING EXCESSIVELY.
   ELEMENT SPIRAL-1.2577 IS DISTORTING EXCESSIVELY.
   ELEMENT SPIRAL-1.2578 IS DISTORTING EXCESSIVELY.
   ELEMENT SPIRAL-1.2580 IS DISTORTING EXCESSIVELY.
   ELEMENT SPIRAL-1.2582 IS DISTORTING EXCESSIVELY.
   ELEMENT SPIRAL-1.2584 IS DISTORTING EXCESSIVELY.
   ELEMENT SPIRAL-1.2585 IS DISTORTING EXCESSIVELY.
   ELEMENT SPIRAL-1.2586 IS DISTORTING EXCESSIVELY.
   ELEMENT SPIRAL-1.2588 IS DISTORTING EXCESSIVELY.
   ELEMENT SPIRAL-1.2590 IS DISTORTING EXCESSIVELY.
   ELEMENT SPIRAL-1.2593 IS DISTORTING EXCESSIVELY.
   ELEMENT SPIRAL-1.2596 IS DISTORTING EXCESSIVELY.
   ELEMENT SPIRAL-1.2599 IS DISTORTING EXCESSIVELY.
   ELEMENT SPIRAL-1.2601 IS DISTORTING EXCESSIVELY.
   ELEMENT SPIRAL-1.2603 IS DISTORTING EXCESSIVELY.
   ELEMENT SPIRAL-1.2606 IS DISTORTING EXCESSIVELY.
   ELEMENT SPIRAL-1.2609 IS DISTORTING EXCESSIVELY.
   ELEMENT SPIRAL-1.2610 IS DISTORTING EXCESSIVELY.
   ELEMENT SPIRAL-1.2612 IS DISTORTING EXCESSIVELY.
   ELEMENT SPIRAL-1.2613 IS DISTORTING EXCESSIVELY.
   ELEMENT SPIRAL-1.2616 IS DISTORTING EXCESSIVELY.
   ELEMENT SPIRAL-1.2619 IS DISTORTING EXCESSIVELY.
   ELEMENT SPIRAL-1.2622 IS DISTORTING EXCESSIVELY.
   ELEMENT SPIRAL-1.2624 IS DISTORTING EXCESSIVELY.
   ELEMENT SPIRAL-1.2625 IS DISTORTING EXCESSIVELY.
   ELEMENT SPIRAL-1.2627 IS DISTORTING EXCESSIVELY.
   ELEMENT SPIRAL-1.2630 IS DISTORTING EXCESSIVELY.
   ELEMENT SPIRAL-1.2631 IS DISTORTING EXCESSIVELY.
   ELEMENT SPIRAL-1.2635 IS DISTORTING EXCESSIVELY.
   ELEMENT SPIRAL-1.2637 IS DISTORTING EXCESSIVELY.
   ELEMENT SPIRAL-1.2639 IS DISTORTING EXCESSIVELY.
   ELEMENT SPIRAL-1.2643 IS DISTORTING EXCESSIVELY.
   ELEMENT SPIRAL-1.2644 IS DISTORTING EXCESSIVELY.
   ELEMENT SPIRAL-1.2647 IS DISTORTING EXCESSIVELY.
   ELEMENT SPIRAL-1.2650 IS DISTORTING EXCESSIVELY.
   ELEMENT SPIRAL-1.2652 IS DISTORTING EXCESSIVELY.
   ELEMENT SPIRAL-1.2653 IS DISTORTING EXCESSIVELY.
   ELEMENT SPIRAL-1.2654 IS DISTORTING EXCESSIVELY.
   ELEMENT SPIRAL-1.2655 IS DISTORTING EXCESSIVELY.
   ELEMENT SPIRAL-1.2656 IS DISTORTING EXCESSIVELY.
   ELEMENT SPIRAL-1.2658 IS DISTORTING EXCESSIVELY.
   ELEMENT SPIRAL-1.2661 IS DISTORTING EXCESSIVELY.
   ELEMENT SPIRAL-1.2664 IS DISTORTING EXCESSIVELY.
   ELEMENT SPIRAL-1.2667 IS DISTORTING EXCESSIVELY.
   ELEMENT SPIRAL-1.2668 IS DISTORTING EXCESSIVELY.
   ELEMENT SPIRAL-1.2670 IS DISTORTING EXCESSIVELY.
   ELEMENT SPIRAL-1.2671 IS DISTORTING EXCESSIVELY.
   ELEMENT SPIRAL-1.2674 IS DISTORTING EXCESSIVELY.
   ELEMENT SPIRAL-1.2675 IS DISTORTING EXCESSIVELY.
   ELEMENT SPIRAL-1.2676 IS DISTORTING EXCESSIVELY.
   ELEMENT SPIRAL-1.2677 IS DISTORTING EXCESSIVELY.
   ELEMENT SPIRAL-1.2680 IS DISTORTING EXCESSIVELY.
   ELEMENT SPIRAL-1.2681 IS DISTORTING EXCESSIVELY.
   ELEMENT SPIRAL-1.2682 IS DISTORTING EXCESSIVELY.
   ELEMENT SPIRAL-1.2685 IS DISTORTING EXCESSIVELY.
   ELEMENT SPIRAL-1.2686 IS DISTORTING EXCESSIVELY.
   ELEMENT SPIRAL-1.2688 IS DISTORTING EXCESSIVELY.
   ELEMENT SPIRAL-1.2689 IS DISTORTING EXCESSIVELY.
   ELEMENT SPIRAL-1.2693 IS DISTORTING EXCESSIVELY.
   ELEMENT SPIRAL-1.2694 IS DISTORTING EXCESSIVELY.
   ELEMENT SPIRAL-1.2695 IS DISTORTING EXCESSIVELY.
   ELEMENT SPIRAL-1.2697 IS DISTORTING EXCESSIVELY.
   ELEMENT SPIRAL-1.2698 IS DISTORTING EXCESSIVELY.
   ELEMENT SPIRAL-1.2700 IS DISTORTING EXCESSIVELY.
   ELEMENT SPIRAL-1.2703 IS DISTORTING EXCESSIVELY.
   ELEMENT SPIRAL-1.2705 IS DISTORTING EXCESSIVELY.
   ELEMENT SPIRAL-1.2709 IS DISTORTING EXCESSIVELY.
   ELEMENT SPIRAL-1.2710 IS DISTORTING EXCESSIVELY.
   ELEMENT SPIRAL-1.2713 IS DISTORTING EXCESSIVELY.
   ELEMENT SPIRAL-1.2714 IS DISTORTING EXCESSIVELY.
   ELEMENT SPIRAL-1.2715 IS DISTORTING EXCESSIVELY.
   ELEMENT SPIRAL-1.2716 IS DISTORTING EXCESSIVELY.
   ELEMENT SPIRAL-1.2718 IS DISTORTING EXCESSIVELY.
   ELEMENT SPIRAL-1.2722 IS DISTORTING EXCESSIVELY.
   ELEMENT SPIRAL-1.2723 IS DISTORTING EXCESSIVELY.
   ELEMENT SPIRAL-1.2726 IS DISTORTING EXCESSIVELY.
   ELEMENT SPIRAL-1.2727 IS DISTORTING EXCESSIVELY.
   ELEMENT SPIRAL-1.2728 IS DISTORTING EXCESSIVELY.
   ELEMENT SPIRAL-1.2729 IS DISTORTING EXCESSIVELY.
   ELEMENT SPIRAL-1.2730 IS DISTORTING EXCESSIVELY.
   ELEMENT SPIRAL-1.2732 IS DISTORTING EXCESSIVELY.
   ELEMENT SPIRAL-1.2733 IS DISTORTING EXCESSIVELY.
   ELEMENT SPIRAL-1.2735 IS DISTORTING EXCESSIVELY.
   ELEMENT SPIRAL-1.2737 IS DISTORTING EXCESSIVELY.
   ELEMENT SPIRAL-1.2740 IS DISTORTING EXCESSIVELY.
   ELEMENT SPIRAL-1.2741 IS DISTORTING EXCESSIVELY.
   ELEMENT SPIRAL-1.2742 IS DISTORTING EXCESSIVELY.
   ELEMENT SPIRAL-1.2743 IS DISTORTING EXCESSIVELY.
   ELEMENT SPIRAL-1.2744 IS DISTORTING EXCESSIVELY.
   ELEMENT SPIRAL-1.2745 IS DISTORTING EXCESSIVELY.
   ELEMENT SPIRAL-1.2746 IS DISTORTING EXCESSIVELY.
   ELEMENT SPIRAL-1.2753 IS DISTORTING EXCESSIVELY.
   ELEMENT SPIRAL-1.2754 IS DISTORTING EXCESSIVELY.
   ELEMENT SPIRAL-1.2755 IS DISTORTING EXCESSIVELY.
   ELEMENT SPIRAL-1.2757 IS DISTORTING EXCESSIVELY.
   ELEMENT SPIRAL-1.2759 IS DISTORTING EXCESSIVELY.
   ELEMENT SPIRAL-1.2761 IS DISTORTING EXCESSIVELY.
   ELEMENT SPIRAL-1.2762 IS DISTORTING EXCESSIVELY.
   ELEMENT SPIRAL-1.2763 IS DISTORTING EXCESSIVELY.
   ELEMENT SPIRAL-1.2765 IS DISTORTING EXCESSIVELY.
   ELEMENT SPIRAL-1.2766 IS DISTORTING EXCESSIVELY.
   ELEMENT SPIRAL-1.2768 IS DISTORTING EXCESSIVELY.
   ELEMENT SPIRAL-1.2771 IS DISTORTING EXCESSIVELY.
   ELEMENT SPIRAL-1.2774 IS DISTORTING EXCESSIVELY.
   ELEMENT SPIRAL-1.2775 IS DISTORTING EXCESSIVELY.
   ELEMENT SPIRAL-1.2776 IS DISTORTING EXCESSIVELY.
   ELEMENT SPIRAL-1.2777 IS DISTORTING EXCESSIVELY.
   ELEMENT SPIRAL-1.2781 IS DISTORTING EXCESSIVELY.
   ELEMENT SPIRAL-1.2782 IS DISTORTING EXCESSIVELY.
   ELEMENT SPIRAL-1.2784 IS DISTORTING EXCESSIVELY.
   ELEMENT SPIRAL-1.2785 IS DISTORTING EXCESSIVELY.
   ELEMENT SPIRAL-1.2787 IS DISTORTING EXCESSIVELY.
   ELEMENT SPIRAL-1.2789 IS DISTORTING EXCESSIVELY.
   ELEMENT SPIRAL-1.2790 IS DISTORTING EXCESSIVELY.
   ELEMENT SPIRAL-1.2791 IS DISTORTING EXCESSIVELY.
   ELEMENT SPIRAL-1.2793 IS DISTORTING EXCESSIVELY.
   ELEMENT SPIRAL-1.2798 IS DISTORTING EXCESSIVELY.
   ELEMENT SPIRAL-1.2799 IS DISTORTING EXCESSIVELY.
   ELEMENT SPIRAL-1.2800 IS DISTORTING EXCESSIVELY.
   ELEMENT SPIRAL-1.2801 IS DISTORTING EXCESSIVELY.
   ELEMENT SPIRAL-1.2802 IS DISTORTING EXCESSIVELY.
   ELEMENT SPIRAL-1.2803 IS DISTORTING EXCESSIVELY.
   ELEMENT SPIRAL-1.2808 IS DISTORTING EXCESSIVELY.
   ELEMENT SPIRAL-1.2810 IS DISTORTING EXCESSIVELY.
   ELEMENT SPIRAL-1.2811 IS DISTORTING EXCESSIVELY.
   ELEMENT SPIRAL-1.2812 IS DISTORTING EXCESSIVELY.
   ELEMENT SPIRAL-1.2815 IS DISTORTING EXCESSIVELY.
   ELEMENT SPIRAL-1.2816 IS DISTORTING EXCESSIVELY.
   ELEMENT SPIRAL-1.2817 IS DISTORTING EXCESSIVELY.
[...]
        NUMBER OF EQUATIONS:  90774
        NUMBER OF RHS:        1
        NUMBER OF FLOPS:      6.037e+09
        SOLVER ELAPSED TIME:  510ms

               CONVERGENCE CHECKS FOR EQUILIBRIUM ITERATION     2


 AVERAGE FORCE                      2.652E-03   TIME AVG. FORCE       1.097E-03
 LARGEST SCALED RESIDUAL FORCE     -1.362E-03   AT NODE       8416   DOF  2
   INSTANCE: SPIRAL-1                                                                        
  CORRESPONDING RESIDUAL FORCE     -1.362E-03
 LARGEST INCREMENT OF DISP.        -2.558E-03   AT NODE        248   DOF  1
   INSTANCE: SPIRAL-1                                                                        
 LARGEST CORRECTION TO DISP.        3.976E-07   AT NODE        248   DOF  3
   INSTANCE: SPIRAL-1                                                                        
          FORCE     EQUILIBRIUM NOT ACHIEVED WITHIN TOLERANCE.
 
	SYMMETRIC PURE THREAD-BASED DIRECT SPARSE SOLVER RUNNING ON
 	1 HOST x 1 MPI RANK PER HOST x 1 THREAD PER RANK
        NUMBER OF EQUATIONS:  90774
        NUMBER OF RHS:        1
        NUMBER OF FLOPS:      6.037e+09
        SOLVER ELAPSED TIME:  505ms

               CONVERGENCE CHECKS FOR EQUILIBRIUM ITERATION     3


 AVERAGE FORCE                      2.909E-03   TIME AVG. FORCE       1.105E-03
 LARGEST SCALED RESIDUAL FORCE      1.569E-02   AT NODE      11029   DOF  1
   INSTANCE: SPIRAL-1                                                                        
  CORRESPONDING RESIDUAL FORCE      1.569E-02
 LARGEST INCREMENT OF DISP.        -2.487E-03   AT NODE        248   DOF  1
   INSTANCE: SPIRAL-1                                                                        
 LARGEST CORRECTION TO DISP.        7.104E-05   AT NODE        248   DOF  1
   INSTANCE: SPIRAL-1                                                                        
          FORCE     EQUILIBRIUM NOT ACHIEVED WITHIN TOLERANCE.
 
	SYMMETRIC PURE THREAD-BASED DIRECT SPARSE SOLVER RUNNING ON
 	1 HOST x 1 MPI RANK PER HOST x 1 THREAD PER RANK
        NUMBER OF EQUATIONS:  90774
        NUMBER OF RHS:        1
        NUMBER OF FLOPS:      6.037e+09
        SOLVER ELAPSED TIME:  511ms

               CONVERGENCE CHECKS FOR EQUILIBRIUM ITERATION     4


 AVERAGE FORCE                      2.647E-03   TIME AVG. FORCE       1.097E-03
 LARGEST SCALED RESIDUAL FORCE      1.097E-05   AT NODE       9541   DOF  1
   INSTANCE: SPIRAL-1                                                                        
  CORRESPONDING RESIDUAL FORCE      1.097E-05
 LARGEST INCREMENT OF DISP.        -2.487E-03   AT NODE        248   DOF  1
   INSTANCE: SPIRAL-1                                                                        
 LARGEST CORRECTION TO DISP.       -3.124E-07   AT NODE        248   DOF  1
   INSTANCE: SPIRAL-1                                                                        
          FORCE     EQUILIBRIUM NOT ACHIEVED WITHIN TOLERANCE.
 
	SYMMETRIC PURE THREAD-BASED DIRECT SPARSE SOLVER RUNNING ON
 	1 HOST x 1 MPI RANK PER HOST x 1 THREAD PER RANK
        NUMBER OF EQUATIONS:  90774
        NUMBER OF RHS:        1
        NUMBER OF FLOPS:      6.037e+09
        SOLVER ELAPSED TIME:  546ms

               CONVERGENCE CHECKS FOR EQUILIBRIUM ITERATION     5


 AVERAGE FORCE                      2.673E-03   TIME AVG. FORCE       1.098E-03
 LARGEST SCALED RESIDUAL FORCE      3.344E-03   AT NODE      11029   DOF  1
   INSTANCE: SPIRAL-1                                                                        
  CORRESPONDING RESIDUAL FORCE      3.344E-03
 LARGEST INCREMENT OF DISP.        -2.520E-03   AT NODE        248   DOF  1
   INSTANCE: SPIRAL-1                                                                        
 LARGEST CORRECTION TO DISP.       -3.278E-05   AT NODE        248   DOF  1
   INSTANCE: SPIRAL-1                                                                        
          FORCE     EQUILIBRIUM NOT ACHIEVED WITHIN TOLERANCE.
 
	SYMMETRIC PURE THREAD-BASED DIRECT SPARSE SOLVER RUNNING ON
 	1 HOST x 1 MPI RANK PER HOST x 1 THREAD PER RANK
        NUMBER OF EQUATIONS:  90774
        NUMBER OF RHS:        1
        NUMBER OF FLOPS:      6.037e+09
        SOLVER ELAPSED TIME:  504ms

               CONVERGENCE CHECKS FOR EQUILIBRIUM ITERATION     6


 AVERAGE FORCE                      2.650E-03   TIME AVG. FORCE       1.097E-03
 LARGEST SCALED RESIDUAL FORCE     -2.811E-06   AT NODE      17271   DOF  1
   INSTANCE: SPIRAL-1                                                                        
  CORRESPONDING RESIDUAL FORCE     -2.811E-06
 LARGEST INCREMENT OF DISP.        -2.520E-03   AT NODE        248   DOF  1
   INSTANCE: SPIRAL-1                                                                        
 LARGEST CORRECTION TO DISP.        9.455E-08   AT NODE        248   DOF  1
   INSTANCE: SPIRAL-1                                                                        
          THE FORCE     EQUILIBRIUM EQUATIONS HAVE CONVERGED

 ITERATION SUMMARY FOR THE INCREMENT:   6 TOTAL ITERATIONS, OF WHICH
   0 ARE SEVERE DISCONTINUITY ITERATIONS AND  6 ARE EQUILIBRIUM ITERATIONS.

 TIME INCREMENT COMPLETED  7.611E-02,  FRACTION OF STEP COMPLETED  0.801    
 STEP TIME COMPLETED       0.801    ,  TOTAL TIME COMPLETED        0.801    


  INCREMENT    32 STARTS. ATTEMPT NUMBER  1, TIME INCREMENT  7.611E-02
 
	SYMMETRIC PURE THREAD-BASED DIRECT SPARSE SOLVER RUNNING ON
 	1 HOST x 1 MPI RANK PER HOST x 1 THREAD PER RANK
        NUMBER OF EQUATIONS:  90774
        NUMBER OF RHS:        1
        NUMBER OF FLOPS:      6.037e+09
        SOLVER ELAPSED TIME:  517ms

               CONVERGENCE CHECKS FOR EQUILIBRIUM ITERATION     1


 AVERAGE FORCE                      5.851E-03   TIME AVG. FORCE       1.245E-03
 LARGEST SCALED RESIDUAL FORCE      9.585E-02   AT NODE      11029   DOF  1
   INSTANCE: SPIRAL-1                                                                        
  CORRESPONDING RESIDUAL FORCE      9.585E-02
 LARGEST INCREMENT OF DISP.        -2.305E-03   AT NODE        248   DOF  1
   INSTANCE: SPIRAL-1                                                                        
 LARGEST CORRECTION TO DISP.        2.270E-04   AT NODE        301   DOF  3
   INSTANCE: SPIRAL-1                                                                        
          FORCE     EQUILIBRIUM NOT ACHIEVED WITHIN TOLERANCE.
 
	SYMMETRIC PURE THREAD-BASED DIRECT SPARSE SOLVER RUNNING ON
 	1 HOST x 1 MPI RANK PER HOST x 1 THREAD PER RANK
        NUMBER OF EQUATIONS:  90774
        NUMBER OF RHS:        1
        NUMBER OF FLOPS:      6.037e+09
        SOLVER ELAPSED TIME:  569ms

               CONVERGENCE CHECKS FOR EQUILIBRIUM ITERATION     2


 AVERAGE FORCE                      2.825E-03   TIME AVG. FORCE       1.151E-03
 LARGEST SCALED RESIDUAL FORCE      8.430E-04   AT NODE       8665   DOF  2
   INSTANCE: SPIRAL-1                                                                        
  CORRESPONDING RESIDUAL FORCE      8.430E-04
 LARGEST INCREMENT OF DISP.        -2.305E-03   AT NODE        248   DOF  1
   INSTANCE: SPIRAL-1                                                                        
 LARGEST CORRECTION TO DISP.        3.375E-07   AT NODE        248   DOF  3
   INSTANCE: SPIRAL-1                                                                        
          FORCE     EQUILIBRIUM NOT ACHIEVED WITHIN TOLERANCE.
 
	SYMMETRIC PURE THREAD-BASED DIRECT SPARSE SOLVER RUNNING ON
 	1 HOST x 1 MPI RANK PER HOST x 1 THREAD PER RANK
        NUMBER OF EQUATIONS:  90774
        NUMBER OF RHS:        1
        NUMBER OF FLOPS:      6.037e+09
        SOLVER ELAPSED TIME:  613ms

               CONVERGENCE CHECKS FOR EQUILIBRIUM ITERATION     3


 AVERAGE FORCE                      2.857E-03   TIME AVG. FORCE       1.152E-03
 LARGEST SCALED RESIDUAL FORCE      4.361E-03   AT NODE      11029   DOF  1
   INSTANCE: SPIRAL-1                                                                        
  CORRESPONDING RESIDUAL FORCE      4.361E-03
 LARGEST INCREMENT OF DISP.        -2.267E-03   AT NODE        248   DOF  1
   INSTANCE: SPIRAL-1                                                                        
 LARGEST CORRECTION TO DISP.        3.763E-05   AT NODE        248   DOF  1
   INSTANCE: SPIRAL-1                                                                        
          FORCE     EQUILIBRIUM NOT ACHIEVED WITHIN TOLERANCE.
 
	SYMMETRIC PURE THREAD-BASED DIRECT SPARSE SOLVER RUNNING ON
 	1 HOST x 1 MPI RANK PER HOST x 1 THREAD PER RANK
        NUMBER OF EQUATIONS:  90774
        NUMBER OF RHS:        1
        NUMBER OF FLOPS:      6.037e+09
        SOLVER ELAPSED TIME:  515ms

               CONVERGENCE CHECKS FOR EQUILIBRIUM ITERATION     4


 AVERAGE FORCE                      2.823E-03   TIME AVG. FORCE       1.151E-03
 LARGEST SCALED RESIDUAL FORCE     -2.162E-06   AT NODE      17271   DOF  1
   INSTANCE: SPIRAL-1                                                                        
  CORRESPONDING RESIDUAL FORCE     -2.162E-06
 LARGEST INCREMENT OF DISP.        -2.268E-03   AT NODE        248   DOF  1
   INSTANCE: SPIRAL-1                                                                        
 LARGEST CORRECTION TO DISP.       -3.737E-07   AT NODE        248   DOF  1
   INSTANCE: SPIRAL-1                                                                        
          THE FORCE     EQUILIBRIUM EQUATIONS HAVE CONVERGED

 ITERATION SUMMARY FOR THE INCREMENT:   4 TOTAL ITERATIONS, OF WHICH
   0 ARE SEVERE DISCONTINUITY ITERATIONS AND  4 ARE EQUILIBRIUM ITERATIONS.

 TIME INCREMENT COMPLETED  7.611E-02,  FRACTION OF STEP COMPLETED  0.877    
 STEP TIME COMPLETED       0.877    ,  TOTAL TIME COMPLETED        0.877    


  INCREMENT    33 STARTS. ATTEMPT NUMBER  1, TIME INCREMENT  7.611E-02
 
	SYMMETRIC PURE THREAD-BASED DIRECT SPARSE SOLVER RUNNING ON
 	1 HOST x 1 MPI RANK PER HOST x 1 THREAD PER RANK
        NUMBER OF EQUATIONS:  90774
        NUMBER OF RHS:        1
        NUMBER OF FLOPS:      6.037e+09
        SOLVER ELAPSED TIME:  624ms

               CONVERGENCE CHECKS FOR EQUILIBRIUM ITERATION     1


 AVERAGE FORCE                      4.429E-03   TIME AVG. FORCE       1.250E-03
 LARGEST SCALED RESIDUAL FORCE      5.226E-02   AT NODE      11029   DOF  1
   INSTANCE: SPIRAL-1                                                                        
  CORRESPONDING RESIDUAL FORCE      5.226E-02
 LARGEST INCREMENT OF DISP.        -2.098E-03   AT NODE        248   DOF  1
   INSTANCE: SPIRAL-1                                                                        
 LARGEST CORRECTION TO DISP.        1.769E-04   AT NODE        301   DOF  3
   INSTANCE: SPIRAL-1                                                                        
          FORCE     EQUILIBRIUM NOT ACHIEVED WITHIN TOLERANCE.
 
	SYMMETRIC PURE THREAD-BASED DIRECT SPARSE SOLVER RUNNING ON
 	1 HOST x 1 MPI RANK PER HOST x 1 THREAD PER RANK
        NUMBER OF EQUATIONS:  90774
        NUMBER OF RHS:        1
        NUMBER OF FLOPS:      6.037e+09
        SOLVER ELAPSED TIME:  554ms

               CONVERGENCE CHECKS FOR EQUILIBRIUM ITERATION     2


 AVERAGE FORCE                      2.987E-03   TIME AVG. FORCE       1.206E-03
 LARGEST SCALED RESIDUAL FORCE      5.234E-04   AT NODE       8665   DOF  2
   INSTANCE: SPIRAL-1                                                                        
  CORRESPONDING RESIDUAL FORCE      5.234E-04
 LARGEST INCREMENT OF DISP.        -2.098E-03   AT NODE        248   DOF  1
   INSTANCE: SPIRAL-1                                                                        
 LARGEST CORRECTION TO DISP.        1.915E-07   AT NODE        245   DOF  3
   INSTANCE: SPIRAL-1                                                                        
          FORCE     EQUILIBRIUM NOT ACHIEVED WITHIN TOLERANCE.
 
	SYMMETRIC PURE THREAD-BASED DIRECT SPARSE SOLVER RUNNING ON
 	1 HOST x 1 MPI RANK PER HOST x 1 THREAD PER RANK
        NUMBER OF EQUATIONS:  90774
        NUMBER OF RHS:        1
        NUMBER OF FLOPS:      6.037e+09
        SOLVER ELAPSED TIME:  552ms

               CONVERGENCE CHECKS FOR EQUILIBRIUM ITERATION     3


 AVERAGE FORCE                      2.990E-03   TIME AVG. FORCE       1.206E-03
 LARGEST SCALED RESIDUAL FORCE      1.536E-03   AT NODE      11029   DOF  1
   INSTANCE: SPIRAL-1                                                                        
  CORRESPONDING RESIDUAL FORCE      1.536E-03
 LARGEST INCREMENT OF DISP.        -2.076E-03   AT NODE        248   DOF  1
   INSTANCE: SPIRAL-1                                                                        
 LARGEST CORRECTION TO DISP.        2.241E-05   AT NODE        248   DOF  1
   INSTANCE: SPIRAL-1                                                                        
          FORCE     EQUILIBRIUM NOT ACHIEVED WITHIN TOLERANCE.
 
	SYMMETRIC PURE THREAD-BASED DIRECT SPARSE SOLVER RUNNING ON
 	1 HOST x 1 MPI RANK PER HOST x 1 THREAD PER RANK
        NUMBER OF EQUATIONS:  90774
        NUMBER OF RHS:        1
        NUMBER OF FLOPS:      6.037e+09
        SOLVER ELAPSED TIME:  616ms

               CONVERGENCE CHECKS FOR EQUILIBRIUM ITERATION     4


 AVERAGE FORCE                      2.986E-03   TIME AVG. FORCE       1.206E-03
 LARGEST SCALED RESIDUAL FORCE     -9.745E-07   AT NODE        723   DOF  1
   INSTANCE: SPIRAL-1                                                                        
  CORRESPONDING RESIDUAL FORCE     -9.745E-07
 LARGEST INCREMENT OF DISP.        -2.076E-03   AT NODE        248   DOF  1
   INSTANCE: SPIRAL-1                                                                        
 LARGEST CORRECTION TO DISP.       -2.302E-07   AT NODE        248   DOF  1
   INSTANCE: SPIRAL-1                                                                        
          THE FORCE     EQUILIBRIUM EQUATIONS HAVE CONVERGED

 ITERATION SUMMARY FOR THE INCREMENT:   4 TOTAL ITERATIONS, OF WHICH
   0 ARE SEVERE DISCONTINUITY ITERATIONS AND  4 ARE EQUILIBRIUM ITERATIONS.

 TIME INCREMENT COMPLETED  7.611E-02,  FRACTION OF STEP COMPLETED  0.953    
 STEP TIME COMPLETED       0.953    ,  TOTAL TIME COMPLETED        0.953    


  INCREMENT    34 STARTS. ATTEMPT NUMBER  1, TIME INCREMENT  4.681E-02
 
	SYMMETRIC PURE THREAD-BASED DIRECT SPARSE SOLVER RUNNING ON
 	1 HOST x 1 MPI RANK PER HOST x 1 THREAD PER RANK
        NUMBER OF EQUATIONS:  90774
        NUMBER OF RHS:        1
        NUMBER OF FLOPS:      6.037e+09
        SOLVER ELAPSED TIME:  688ms

               CONVERGENCE CHECKS FOR EQUILIBRIUM ITERATION     1


 AVERAGE FORCE                      3.396E-03   TIME AVG. FORCE       1.271E-03
 LARGEST SCALED RESIDUAL FORCE      1.869E-02   AT NODE      11029   DOF  1
   INSTANCE: SPIRAL-1                                                                        
  CORRESPONDING RESIDUAL FORCE      1.869E-02
 LARGEST INCREMENT OF DISP.        -1.189E-03   AT NODE        248   DOF  1
   INSTANCE: SPIRAL-1                                                                        
 LARGEST CORRECTION TO DISP.        8.793E-05   AT NODE        248   DOF  1
   INSTANCE: SPIRAL-1                                                                        
          FORCE     EQUILIBRIUM NOT ACHIEVED WITHIN TOLERANCE.
 
	SYMMETRIC PURE THREAD-BASED DIRECT SPARSE SOLVER RUNNING ON
 	1 HOST x 1 MPI RANK PER HOST x 1 THREAD PER RANK
        NUMBER OF EQUATIONS:  90774
        NUMBER OF RHS:        1
        NUMBER OF FLOPS:      6.037e+09
        SOLVER ELAPSED TIME:  698ms

               CONVERGENCE CHECKS FOR EQUILIBRIUM ITERATION     2


 AVERAGE FORCE                      3.083E-03   TIME AVG. FORCE       1.262E-03
 LARGEST SCALED RESIDUAL FORCE      7.248E-05   AT NODE       8665   DOF  2
   INSTANCE: SPIRAL-1                                                                        
  CORRESPONDING RESIDUAL FORCE      7.248E-05
 LARGEST INCREMENT OF DISP.        -1.189E-03   AT NODE        248   DOF  1
   INSTANCE: SPIRAL-1                                                                        
 LARGEST CORRECTION TO DISP.        7.939E-08   AT NODE        245   DOF  3
   INSTANCE: SPIRAL-1                                                                        
          FORCE     EQUILIBRIUM NOT ACHIEVED WITHIN TOLERANCE.
 
	SYMMETRIC PURE THREAD-BASED DIRECT SPARSE SOLVER RUNNING ON
 	1 HOST x 1 MPI RANK PER HOST x 1 THREAD PER RANK
        NUMBER OF EQUATIONS:  90774
        NUMBER OF RHS:        1
        NUMBER OF FLOPS:      6.037e+09
        SOLVER ELAPSED TIME:  539ms

               CONVERGENCE CHECKS FOR EQUILIBRIUM ITERATION     3


 AVERAGE FORCE                      3.082E-03   TIME AVG. FORCE       1.261E-03
 LARGEST SCALED RESIDUAL FORCE      1.916E-04   AT NODE      11029   DOF  1
   INSTANCE: SPIRAL-1                                                                        
  CORRESPONDING RESIDUAL FORCE      1.916E-04
 LARGEST INCREMENT OF DISP.        -1.181E-03   AT NODE        248   DOF  1
   INSTANCE: SPIRAL-1                                                                        
 LARGEST CORRECTION TO DISP.        7.925E-06   AT NODE        248   DOF  1
   INSTANCE: SPIRAL-1                                                                        
          FORCE     EQUILIBRIUM NOT ACHIEVED WITHIN TOLERANCE.
 
	SYMMETRIC PURE THREAD-BASED DIRECT SPARSE SOLVER RUNNING ON
 	1 HOST x 1 MPI RANK PER HOST x 1 THREAD PER RANK
        NUMBER OF EQUATIONS:  90774
        NUMBER OF RHS:        1
        NUMBER OF FLOPS:      6.037e+09
        SOLVER ELAPSED TIME:  543ms

               CONVERGENCE CHECKS FOR EQUILIBRIUM ITERATION     4


 AVERAGE FORCE                      3.083E-03   TIME AVG. FORCE       1.262E-03
 LARGEST SCALED RESIDUAL FORCE      1.247E-07   AT NODE         32   DOF  3
   INSTANCE: SPIRAL-1                                                                        
  CORRESPONDING RESIDUAL FORCE      1.247E-07
 LARGEST INCREMENT OF DISP.        -1.181E-03   AT NODE        248   DOF  1
   INSTANCE: SPIRAL-1                                                                        
 LARGEST CORRECTION TO DISP.       -3.991E-08   AT NODE        248   DOF  1
   INSTANCE: SPIRAL-1                                                                        
          THE FORCE     EQUILIBRIUM EQUATIONS HAVE CONVERGED

 ITERATION SUMMARY FOR THE INCREMENT:   4 TOTAL ITERATIONS, OF WHICH
   0 ARE SEVERE DISCONTINUITY ITERATIONS AND  4 ARE EQUILIBRIUM ITERATIONS.

 TIME INCREMENT COMPLETED  4.681E-02,  FRACTION OF STEP COMPLETED   1.00    
 STEP TIME COMPLETED        1.00    ,  TOTAL TIME COMPLETED         1.00    


          THE ANALYSIS HAS BEEN COMPLETED



     ANALYSIS SUMMARY:
     TOTAL OF         34  INCREMENTS
                       8  CUTBACKS IN AUTOMATIC INCREMENTATION
                     188  ITERATIONS INCLUDING CONTACT ITERATIONS IF PRESENT
                     188  PASSES THROUGH THE EQUATION SOLVER OF WHICH 
                     188  INVOLVE MATRIX DECOMPOSITION, INCLUDING
                       0  DECOMPOSITION(S) OF THE MASS MATRIX
                       1  REORDERING OF EQUATIONS TO MINIMIZE WAVEFRONT
                       0  ADDITIONAL RESIDUAL EVALUATIONS FOR LINE SEARCHES
                       0  ADDITIONAL OPERATOR EVALUATIONS FOR LINE SEARCHES
                       4  WARNING MESSAGES DURING USER INPUT PROCESSING
                      34  WARNING MESSAGES DURING ANALYSIS
                       0  ANALYSIS WARNINGS ARE NUMERICAL PROBLEM MESSAGES
                      32  ANALYSIS WARNINGS ARE NEGATIVE EIGENVALUE MESSAGES
                       0  ERROR MESSAGES



     JOB TIME SUMMARY
       USER TIME (SEC)      =     1.28E+03
       SYSTEM TIME (SEC)    =     1.48E+02
       TOTAL CPU TIME (SEC) =     1.43E+03
       WALLCLOCK TIME (SEC) =          291
       MEMORY PEAK (GB)     =            0
