 Abaqus/Standard 2025                  DATE 22-Feb-2026 TIME 15:08:05
 SUMMARY OF JOB INFORMATION:
 STEP  INC ATT SEVERE EQUIL TOTAL  TOTAL      STEP       INC OF       DOF    IF
               DISCON ITERS ITERS  TIME/    TIME/LPF    TIME/LPF    MONITOR RIKS
               ITERS               FREQ
   1     1   1     0     2     2  0.00500    0.00500    0.005000  
   1     2   1     0     1     1  0.0100     0.0100     0.005000  
   1     3   1     0     1     1  0.0150     0.0150     0.005000  
   1     4   1     0     1     1  0.0200     0.0200     0.005000  
   1     5   1     0     1     1  0.0250     0.0250     0.005000  
   1     6   1     0     1     1  0.0300     0.0300     0.005000  
   1     7   1     0     1     1  0.0350     0.0350     0.005000  
   1     8   1     0     1     1  0.0400     0.0400     0.005000  
   1     9   1     0     1     1  0.0450     0.0450     0.005000  
   1    10   1     0     1     1  0.0500     0.0500     0.005000  
   1    11   1     0     1     1  0.0550     0.0550     0.005000  
   1    12   1     0     1     1  0.0600     0.0600     0.005000  
   1    13   1     0     1     1  0.0650     0.0650     0.005000  
   1    14   1     0     1     1  0.0700     0.0700     0.005000  
   1    15   1     0     1     1  0.0750     0.0750     0.005000  
   1    16   1     0     1     1  0.0800     0.0800     0.005000  
   1    17   1     0     1     1  0.0850     0.0850     0.005000  
   1    18   1     0     1     1  0.0900     0.0900     0.005000  
   1    19   1     0     1     1  0.0950     0.0950     0.005000  
   1    20   1     0     1     1  0.100      0.100      0.005000  
   1    21   1     0     1     1  0.105      0.105      0.005000  
   1    22   1     0     1     1  0.110      0.110      0.005000  
   1    23   1     0     1     1  0.115      0.115      0.005000  
   1    24   1     0     1     1  0.120      0.120      0.005000  
   1    25   1     0     1     1  0.125      0.125      0.005000  
   1    26   1     0     1     1  0.130      0.130      0.005000  
   1    27   1     0     1     1  0.135      0.135      0.005000  
   1    28   1     0     1     1  0.140      0.140      0.005000  
   1    29   1     0     1     1  0.145      0.145      0.005000  
   1    30   1     0     1     1  0.150      0.150      0.005000  
   1    31   1     0     1     1  0.155      0.155      0.005000  
   1    32   1     0     1     1  0.160      0.160      0.005000  
   1    33   1     0     1     1  0.165      0.165      0.005000  
   1    34   1     0     1     1  0.170      0.170      0.005000  
   1    35   1     0     1     1  0.175      0.175      0.005000  
   1    36   1     0     1     1  0.180      0.180      0.005000  
   1    37   1     0     1     1  0.185      0.185      0.005000  
   1    38   1     0     1     1  0.190      0.190      0.005000  
   1    39   1     0     1     1  0.195      0.195      0.005000  
   1    40   1     0     1     1  0.200      0.200      0.005000  
   1    41   1     0     1     1  0.205      0.205      0.005000  
   1    42   1     0     1     1  0.210      0.210      0.005000  
   1    43   1     0     1     1  0.215      0.215      0.005000  
   1    44   1     0     1     1  0.220      0.220      0.005000  
   1    45   1     0     1     1  0.225      0.225      0.005000  
   1    46   1     0     2     2  0.230      0.230      0.005000  
   1    47   1     0     2     2  0.235      0.235      0.005000  
   1    48   1     0     2     2  0.240      0.240      0.005000  
   1    49   1     0     2     2  0.245      0.245      0.005000  
   1    50   1     0     2     2  0.250      0.250      0.005000  
   1    51   1     0     2     2  0.255      0.255      0.005000  
   1    52   1     0     2     2  0.260      0.260      0.005000  
   1    53   1     0     2     2  0.265      0.265      0.005000  
   1    54   1     0     2     2  0.270      0.270      0.005000  
   1    55   1     0     2     2  0.275      0.275      0.005000  
   1    56   1     0     2     2  0.280      0.280      0.005000  
   1    57   1     0     2     2  0.285      0.285      0.005000  
   1    58   1     0     2     2  0.290      0.290      0.005000  
   1    59   1     0     2     2  0.295      0.295      0.005000  
   1    60   1     0     2     2  0.300      0.300      0.005000  
   1    61   1     0     2     2  0.305      0.305      0.005000  
   1    62   1     0     2     2  0.310      0.310      0.005000  
   1    63   1     0     2     2  0.315      0.315      0.005000  
   1    64   1     0     2     2  0.320      0.320      0.005000  
   1    65   1     0     2     2  0.325      0.325      0.005000  
   1    66   1     0     2     2  0.330      0.330      0.005000  
   1    67   1     0     2     2  0.335      0.335      0.005000  
   1    68   1     0     2     2  0.340      0.340      0.005000  
   1    69   1     0     2     2  0.345      0.345      0.005000  
   1    70   1     0     2     2  0.350      0.350      0.005000  
   1    71   1     0     2     2  0.355      0.355      0.005000  
   1    72   1     0     2     2  0.360      0.360      0.005000  
   1    73   1     0     2     2  0.365      0.365      0.005000  
   1    74   1     0     2     2  0.370      0.370      0.005000  
   1    75   1     0     2     2  0.375      0.375      0.005000  
   1    76   1     0     2     2  0.380      0.380      0.005000  
   1    77   1     0     2     2  0.385      0.385      0.005000  
   1    78   1     0     2     2  0.390      0.390      0.005000  
   1    79   1     0     2     2  0.395      0.395      0.005000  
   1    80   1     0     2     2  0.400      0.400      0.005000  
   1    81   1     0     2     2  0.405      0.405      0.005000  
   1    82   1     0     2     2  0.410      0.410      0.005000  
   1    83   1     0     2     2  0.415      0.415      0.005000  
   1    84   1     0     2     2  0.420      0.420      0.005000  
   1    85   1     0     2     2  0.425      0.425      0.005000  
   1    86   1     0     2     2  0.430      0.430      0.005000  
   1    87   1     0     2     2  0.435      0.435      0.005000  
   1    88   1     0     2     2  0.440      0.440      0.005000  
   1    89   1     0     2     2  0.445      0.445      0.005000  
   1    90   1     0     2     2  0.450      0.450      0.005000  
   1    91   1     0     2     2  0.455      0.455      0.005000  
   1    92   1     0     2     2  0.460      0.460      0.005000  
   1    93   1     0     2     2  0.465      0.465      0.005000  
   1    94   1     0     2     2  0.470      0.470      0.005000  
   1    95   1     0     2     2  0.475      0.475      0.005000  
   1    96   1     0     2     2  0.480      0.480      0.005000  
   1    97   1     0     2     2  0.485      0.485      0.005000  
   1    98   1     0     2     2  0.490      0.490      0.005000  
   1    99   1     0     2     2  0.495      0.495      0.005000  
   1   100   1     0     2     2  0.500      0.500      0.005000  
                          
 THE ANALYSIS HAS NOT BEEN COMPLETED
