 Abaqus/Standard 2025                  DATE 22-Feb-2026 TIME 14:20:52
 SUMMARY OF JOB INFORMATION:
 STEP  INC ATT SEVERE EQUIL TOTAL  TOTAL      STEP       INC OF       DOF    IF
               DISCON ITERS ITERS  TIME/    TIME/LPF    TIME/LPF    MONITOR RIKS
               ITERS               FREQ
   1     1   1U    0     2     2  0.00       0.00       1.000     
   1     1   2U    0     7     7  0.00       0.00       0.2500    
   1     1   3U    0     9     9  0.00       0.00       0.06250   
   1     1   4     0     6     6  0.0312     0.0312     0.03125   
   1     2   1     0     3     3  0.0625     0.0625     0.03125   
   1     3   1     0     2     2  0.0938     0.0938     0.03125   
   1     4   1     0     3     3  0.141      0.141      0.04688   
   1     5   1     0     4     4  0.211      0.211      0.07031   
   1     6   1     0     4     4  0.316      0.316      0.1055    
   1     7   1U    0     5     5  0.316      0.316      0.1582    
   1     7   2     0     3     3  0.356      0.356      0.03955   
   1     8   1     0     3     3  0.415      0.415      0.05933   
   1     9   1     0     3     3  0.504      0.504      0.08899   
   1    10   1     0     7     7  0.638      0.638      0.1335    
   1    11   1     0     6     6  0.771      0.771      0.1335    
   1    12   1     0     6     6  0.905      0.905      0.1335    
   1    13   1     0     5     5  1.00       1.00       0.09528   
                          
 THE ANALYSIS HAS COMPLETED SUCCESSFULLY
