1

   Abaqus 2025                                  Date 22-Feb-2026   Time 14:20:48
   For use by UNIVERSITAET STUTTGART under license from Dassault Systemes or its subsidiary.

                                                                                 
                                                                                 
 STEP    1     INCREMENT     1     STEP TIME    0.00    


                        S T E P       1     S T A T I C   A N A L Y S I S


                                                                                          

     AUTOMATIC TIME CONTROL WITH -
          A SUGGESTED INITIAL TIME INCREMENT OF                 1.00    
          AND A TOTAL TIME PERIOD OF                            1.00    
          THE MINIMUM TIME INCREMENT ALLOWED IS                1.000E-05
          THE MAXIMUM TIME INCREMENT ALLOWED IS                 1.00    

     LINEAR EQUATION SOLVER TYPE         DIRECT SPARSE

 CONVERGENCE TOLERANCE PARAMETERS FOR FORCE    
     CRITERION FOR RESIDUAL FORCE     FOR A NONLINEAR PROBLEM          5.000E-03
     CRITERION FOR DISP.    CORRECTION IN A NONLINEAR PROBLEM          1.000E-02
     INITIAL VALUE OF TIME AVERAGE FORCE                               1.000E-02
     AVERAGE FORCE     IS TIME AVERAGE FORCE    
     ALTERNATE CRIT. FOR RESIDUAL FORCE     FOR A NONLINEAR PROBLEM    2.000E-02
     CRITERION FOR ZERO FORCE     RELATIVE TO TIME AVRG. FORCE         1.000E-05
     CRITERION FOR RESIDUAL FORCE     WHEN THERE IS ZERO FLUX          1.000E-05
     CRITERION FOR DISP.    CORRECTION WHEN THERE IS ZERO FLUX         1.000E-03
     CRITERION FOR RESIDUAL FORCE     FOR A LINEAR INCREMENT           1.000E-08
     FIELD CONVERSION RATIO                                             1.00    
     CRITERION FOR ZERO FORCE     REL. TO TIME AVRG. MAX. FORCE        1.000E-05
     CRITERION FOR ZERO DISP.    RELATIVE TO CHARACTERISTIC LENGTH     1.000E-08

     VOLUMETRIC STRAIN COMPATIBILITY TOLERANCE FOR HYBRID SOLIDS       1.000E-05
     AXIAL STRAIN COMPATIBILITY TOLERANCE FOR HYBRID BEAMS             1.000E-05
     TRANS. SHEAR STRAIN COMPATIBILITY TOLERANCE FOR HYBRID BEAMS      1.000E-05
     SOFT CONTACT CONSTRAINT COMPATIBILITY TOLERANCE FOR P>P0          5.000E-03
     SOFT CONTACT CONSTRAINT COMPATIBILITY TOLERANCE FOR P=0.0         0.100    
     CONTACT FORCE ERROR TOLERANCE FOR CONVERT SDI=YES                 1.00    
     DISPLACEMENT COMPATIBILITY TOLERANCE FOR DCOUP ELEMENTS           1.000E-05
     ROTATION COMPATIBILITY TOLERANCE FOR DCOUP ELEMENTS               1.000E-05

 EQUILIBRIUM WILL BE CHECKED FOR SEVERE DISCONTINUITY ITERATIONS

 TIME INCREMENTATION CONTROL PARAMETERS:
     FIRST EQUILIBRIUM ITERATION FOR CONSECUTIVE DIVERGENCE CHECK              4
     EQUILIBRIUM ITERATION AT WHICH LOG. CONVERGENCE RATE CHECK BEGINS         8
     EQUILIBRIUM ITERATION AFTER WHICH ALTERNATE RESIDUAL IS USED              9
     MAXIMUM EQUILIBRIUM ITERATIONS ALLOWED                                   16
     EQUILIBRIUM ITERATION COUNT FOR CUT-BACK IN NEXT INCREMENT               10
     MAXIMUM EQUILIB. ITERS IN TWO INCREMENTS FOR TIME INCREMENT INCREASE      4
     MAXIMUM ITERATIONS FOR SEVERE DISCONTINUITIES                            50
     MAXIMUM ATTEMPTS ALLOWED IN AN INCREMENT                                  5
     MAXIMUM DISCON. ITERS IN TWO INCREMENTS FOR TIME INCREMENT INCREASE      50
     MAXIMUM CONTACT AUGMENTATIONS FOR *SURFACE BEHAVIOR,AUGMENTED LAGRANGE   50
     CUT-BACK FACTOR AFTER DIVERGENCE                                 0.2500    
     CUT-BACK FACTOR FOR TOO SLOW CONVERGENCE                         0.5000    
     CUT-BACK FACTOR AFTER TOO MANY EQUILIBRIUM ITERATIONS            0.7500    
     CUT-BACK FACTOR AFTER TOO MANY SEVERE DISCONTINUITY ITERATIONS   0.2500    
     CUT-BACK FACTOR AFTER PROBLEMS IN ELEMENT ASSEMBLY               0.2500    
     INCREASE FACTOR AFTER TWO INCREMENTS THAT CONVERGE QUICKLY        1.500    
     MAX. TIME INCREMENT INCREASE FACTOR ALLOWED                       1.500    
     MAX. TIME INCREMENT INCREASE FACTOR ALLOWED (DYNAMICS)            1.250    
     MAX. TIME INCREMENT INCREASE FACTOR ALLOWED (DIFFUSION)           2.000    
     MINIMUM TIME INCREMENT RATIO FOR EXTRAPOLATION TO OCCUR          0.1000    
     MAX. RATIO OF TIME INCREMENT TO STABILITY LIMIT                   1.000    
     FRACTION OF STABILITY LIMIT FOR NEW TIME INCREMENT               0.9500    
     TIME INCREMENT INCREASE FACTOR BEFORE A TIME POINT                1.000    
     GLOBAL STABILIZATION CONTROL IS NOT USED

          PRINT OF INCREMENT NUMBER, TIME, ETC., EVERY    1  INCREMENTS

     THE MAXIMUM NUMBER OF INCREMENTS IN THIS STEP IS                     100

          LARGE DISPLACEMENT THEORY WILL BE USED

     LINEAR EXTRAPOLATION WILL BE USED

     CHARACTERISTIC ELEMENT LENGTH     8.268E-04

     DETAILS REGARDING ACTUAL SOLUTION WAVEFRONT REQUESTED

     DETAILED OUTPUT OF DIAGNOSTICS TO DATABASE REQUESTED

     PRINT OF INCREMENT NUMBER, TIME, ETC., TO THE MESSAGE FILE EVERY     1  INCREMENTS

     COLLECTING MODEL CONSTRAINT INFORMATION FOR OVERCONSTRAINT CHECKS

     COLLECTING STEP CONSTRAINT INFORMATION FOR OVERCONSTRAINT CHECKS


  INCREMENT     1 STARTS. ATTEMPT NUMBER  1, TIME INCREMENT   1.00    
 
	SYMMETRIC PURE THREAD-BASED DIRECT SPARSE SOLVER RUNNING ON
 	1 HOST x 1 MPI RANK PER HOST x 1 THREAD PER RANK
        NUMBER OF EQUATIONS:  90774
        NUMBER OF RHS:        1
        NUMBER OF FLOPS:      6.037e+09
        SOLVER ELAPSED TIME:  234ms

               CONVERGENCE CHECKS FOR EQUILIBRIUM ITERATION     1


 AVERAGE FORCE                       193.       TIME AVG. FORCE        193.    
 LARGEST SCALED RESIDUAL FORCE      3.751E+03   AT NODE      11029   DOF  3
   INSTANCE: SPIRAL-1                                                                        
  CORRESPONDING RESIDUAL FORCE      3.751E+03
 LARGEST INCREMENT OF DISP.        -3.765E-02   AT NODE       3156   DOF  3
   INSTANCE: SPIRAL-1                                                                        
 LARGEST CORRECTION TO DISP.       -3.765E-02   AT NODE       3156   DOF  3
   INSTANCE: SPIRAL-1                                                                        
          FORCE     EQUILIBRIUM NOT ACHIEVED WITHIN TOLERANCE.
 
	SYMMETRIC PURE THREAD-BASED DIRECT SPARSE SOLVER RUNNING ON
 	1 HOST x 1 MPI RANK PER HOST x 1 THREAD PER RANK
        NUMBER OF EQUATIONS:  90774
        NUMBER OF RHS:        1
        NUMBER OF FLOPS:      6.037e+09
        SOLVER ELAPSED TIME:  223ms
 

 ***WARNING: THE SYSTEM MATRIX HAS 2503 NEGATIVE EIGENVALUES.

     NEGATIVE EIGENVALUES MEAN THAT THE SYSTEM MATRIX IS NOT 
     POSITIVE DEFINITE:
     FOR EXAMPLE, A BIFURCATION (BUCKLING) LOAD MAY HAVE BEEN EXCEEDED.
   ELEMENT SPIRAL-1.44 IS DISTORTING EXCESSIVELY.
   ELEMENT SPIRAL-1.45 IS DISTORTING EXCESSIVELY.
   ELEMENT SPIRAL-1.46 IS DISTORTING EXCESSIVELY.
   ELEMENT SPIRAL-1.47 IS DISTORTING EXCESSIVELY.
   ELEMENT SPIRAL-1.49 IS DISTORTING EXCESSIVELY.
   ELEMENT SPIRAL-1.50 IS DISTORTING EXCESSIVELY.
   ELEMENT SPIRAL-1.51 IS DISTORTING EXCESSIVELY.
   ELEMENT SPIRAL-1.52 IS DISTORTING EXCESSIVELY.
   ELEMENT SPIRAL-1.53 IS DISTORTING EXCESSIVELY.
   ELEMENT SPIRAL-1.56 IS DISTORTING EXCESSIVELY.
   ELEMENT SPIRAL-1.57 IS DISTORTING EXCESSIVELY.
   ELEMENT SPIRAL-1.58 IS DISTORTING EXCESSIVELY.
   ELEMENT SPIRAL-1.60 IS DISTORTING EXCESSIVELY.
   ELEMENT SPIRAL-1.63 IS DISTORTING EXCESSIVELY.
   ELEMENT SPIRAL-1.66 IS DISTORTING EXCESSIVELY.
   ELEMENT SPIRAL-1.67 IS DISTORTING EXCESSIVELY.
   ELEMENT SPIRAL-1.68 IS DISTORTING EXCESSIVELY.
   ELEMENT SPIRAL-1.69 IS DISTORTING EXCESSIVELY.
   ELEMENT SPIRAL-1.71 IS DISTORTING EXCESSIVELY.
   ELEMENT SPIRAL-1.72 IS DISTORTING EXCESSIVELY.
   ELEMENT SPIRAL-1.73 IS DISTORTING EXCESSIVELY.
   ELEMENT SPIRAL-1.74 IS DISTORTING EXCESSIVELY.
   ELEMENT SPIRAL-1.75 IS DISTORTING EXCESSIVELY.
   ELEMENT SPIRAL-1.78 IS DISTORTING EXCESSIVELY.
   ELEMENT SPIRAL-1.79 IS DISTORTING EXCESSIVELY.
   ELEMENT SPIRAL-1.80 IS DISTORTING EXCESSIVELY.
   ELEMENT SPIRAL-1.81 IS DISTORTING EXCESSIVELY.
   ELEMENT SPIRAL-1.82 IS DISTORTING EXCESSIVELY.
   ELEMENT SPIRAL-1.83 IS DISTORTING EXCESSIVELY.
   ELEMENT SPIRAL-1.84 IS DISTORTING EXCESSIVELY.
   ELEMENT SPIRAL-1.86 IS DISTORTING EXCESSIVELY.
   ELEMENT SPIRAL-1.89 IS DISTORTING EXCESSIVELY.
   ELEMENT SPIRAL-1.90 IS DISTORTING EXCESSIVELY.
   ELEMENT SPIRAL-1.91 IS DISTORTING EXCESSIVELY.
   ELEMENT SPIRAL-1.94 IS DISTORTING EXCESSIVELY.
   ELEMENT SPIRAL-1.95 IS DISTORTING EXCESSIVELY.
   ELEMENT SPIRAL-1.96 IS DISTORTING EXCESSIVELY.
   ELEMENT SPIRAL-1.329 IS DISTORTING EXCESSIVELY.
   ELEMENT SPIRAL-1.330 IS DISTORTING EXCESSIVELY.
   ELEMENT SPIRAL-1.331 IS DISTORTING EXCESSIVELY.
   ELEMENT SPIRAL-1.332 IS DISTORTING EXCESSIVELY.
   ELEMENT SPIRAL-1.333 IS DISTORTING EXCESSIVELY.
   ELEMENT SPIRAL-1.334 IS DISTORTING EXCESSIVELY.
   ELEMENT SPIRAL-1.335 IS DISTORTING EXCESSIVELY.
   ELEMENT SPIRAL-1.336 IS DISTORTING EXCESSIVELY.
   ELEMENT SPIRAL-1.337 IS DISTORTING EXCESSIVELY.
   ELEMENT SPIRAL-1.339 IS DISTORTING EXCESSIVELY.
   ELEMENT SPIRAL-1.340 IS DISTORTING EXCESSIVELY.
   ELEMENT SPIRAL-1.341 IS DISTORTING EXCESSIVELY.
   ELEMENT SPIRAL-1.342 IS DISTORTING EXCESSIVELY.
   ELEMENT SPIRAL-1.343 IS DISTORTING EXCESSIVELY.
   ELEMENT SPIRAL-1.344 IS DISTORTING EXCESSIVELY.
   ELEMENT SPIRAL-1.345 IS DISTORTING EXCESSIVELY.
   ELEMENT SPIRAL-1.346 IS DISTORTING EXCESSIVELY.
   ELEMENT SPIRAL-1.347 IS DISTORTING EXCESSIVELY.
   ELEMENT SPIRAL-1.348 IS DISTORTING EXCESSIVELY.
   ELEMENT SPIRAL-1.349 IS DISTORTING EXCESSIVELY.
   ELEMENT SPIRAL-1.350 IS DISTORTING EXCESSIVELY.
   ELEMENT SPIRAL-1.352 IS DISTORTING EXCESSIVELY.
   ELEMENT SPIRAL-1.353 IS DISTORTING EXCESSIVELY.
   ELEMENT SPIRAL-1.357 IS DISTORTING EXCESSIVELY.
   ELEMENT SPIRAL-1.358 IS DISTORTING EXCESSIVELY.
   ELEMENT SPIRAL-1.359 IS DISTORTING EXCESSIVELY.
   ELEMENT SPIRAL-1.360 IS DISTORTING EXCESSIVELY.
   ELEMENT SPIRAL-1.361 IS DISTORTING EXCESSIVELY.
   ELEMENT SPIRAL-1.362 IS DISTORTING EXCESSIVELY.
   ELEMENT SPIRAL-1.1044 IS DISTORTING EXCESSIVELY.
   ELEMENT SPIRAL-1.1045 IS DISTORTING EXCESSIVELY.
   ELEMENT SPIRAL-1.1046 IS DISTORTING EXCESSIVELY.
   ELEMENT SPIRAL-1.1047 IS DISTORTING EXCESSIVELY.
   ELEMENT SPIRAL-1.1048 IS DISTORTING EXCESSIVELY.
   ELEMENT SPIRAL-1.1049 IS DISTORTING EXCESSIVELY.
   ELEMENT SPIRAL-1.1050 IS DISTORTING EXCESSIVELY.
   ELEMENT SPIRAL-1.1051 IS DISTORTING EXCESSIVELY.
   ELEMENT SPIRAL-1.1052 IS DISTORTING EXCESSIVELY.
   ELEMENT SPIRAL-1.1053 IS DISTORTING EXCESSIVELY.
   ELEMENT SPIRAL-1.1054 IS DISTORTING EXCESSIVELY.
   ELEMENT SPIRAL-1.1055 IS DISTORTING EXCESSIVELY.
   ELEMENT SPIRAL-1.1056 IS DISTORTING EXCESSIVELY.
   ELEMENT SPIRAL-1.1057 IS DISTORTING EXCESSIVELY.
   ELEMENT SPIRAL-1.1058 IS DISTORTING EXCESSIVELY.
   ELEMENT SPIRAL-1.1059 IS DISTORTING EXCESSIVELY.
   ELEMENT SPIRAL-1.1060 IS DISTORTING EXCESSIVELY.
   ELEMENT SPIRAL-1.1061 IS DISTORTING EXCESSIVELY.
   ELEMENT SPIRAL-1.1062 IS DISTORTING EXCESSIVELY.
   ELEMENT SPIRAL-1.1063 IS DISTORTING EXCESSIVELY.
   ELEMENT SPIRAL-1.1064 IS DISTORTING EXCESSIVELY.
   ELEMENT SPIRAL-1.1065 IS DISTORTING EXCESSIVELY.
   ELEMENT SPIRAL-1.1066 IS DISTORTING EXCESSIVELY.
   ELEMENT SPIRAL-1.1067 IS DISTORTING EXCESSIVELY.
   ELEMENT SPIRAL-1.1068 IS DISTORTING EXCESSIVELY.
   ELEMENT SPIRAL-1.1069 IS DISTORTING EXCESSIVELY.
   ELEMENT SPIRAL-1.1070 IS DISTORTING EXCESSIVELY.
   ELEMENT SPIRAL-1.1071 IS DISTORTING EXCESSIVELY.
   ELEMENT SPIRAL-1.1072 IS DISTORTING EXCESSIVELY.
   ELEMENT SPIRAL-1.1073 IS DISTORTING EXCESSIVELY.
   ELEMENT SPIRAL-1.1074 IS DISTORTING EXCESSIVELY.
   ELEMENT SPIRAL-1.1075 IS DISTORTING EXCESSIVELY.
   ELEMENT SPIRAL-1.1077 IS DISTORTING EXCESSIVELY.
   ELEMENT SPIRAL-1.1079 IS DISTORTING EXCESSIVELY.
   ELEMENT SPIRAL-1.1080 IS DISTORTING EXCESSIVELY.
   ELEMENT SPIRAL-1.1081 IS DISTORTING EXCESSIVELY.
   ELEMENT SPIRAL-1.1082 IS DISTORTING EXCESSIVELY.
   ELEMENT SPIRAL-1.1083 IS DISTORTING EXCESSIVELY.
   ELEMENT SPIRAL-1.1084 IS DISTORTING EXCESSIVELY.
   ELEMENT SPIRAL-1.1085 IS DISTORTING EXCESSIVELY.
   ELEMENT SPIRAL-1.1086 IS DISTORTING EXCESSIVELY.
   ELEMENT SPIRAL-1.1087 IS DISTORTING EXCESSIVELY.
   ELEMENT SPIRAL-1.2549 IS DISTORTING EXCESSIVELY.
   ELEMENT SPIRAL-1.2550 IS DISTORTING EXCESSIVELY.
   ELEMENT SPIRAL-1.2551 IS DISTORTING EXCESSIVELY.
   ELEMENT SPIRAL-1.2552 IS DISTORTING EXCESSIVELY.
   ELEMENT SPIRAL-1.2553 IS DISTORTING EXCESSIVELY.
   ELEMENT SPIRAL-1.2554 IS DISTORTING EXCESSIVELY.
   ELEMENT SPIRAL-1.2555 IS DISTORTING EXCESSIVELY.
   ELEMENT SPIRAL-1.2556 IS DISTORTING EXCESSIVELY.
   ELEMENT SPIRAL-1.2557 IS DISTORTING EXCESSIVELY.
   ELEMENT SPIRAL-1.2558 IS DISTORTING EXCESSIVELY.
   ELEMENT SPIRAL-1.2559 IS DISTORTING EXCESSIVELY.
   ELEMENT SPIRAL-1.2561 IS DISTORTING EXCESSIVELY.
   ELEMENT SPIRAL-1.2562 IS DISTORTING EXCESSIVELY.
   ELEMENT SPIRAL-1.2564 IS DISTORTING EXCESSIVELY.
   ELEMENT SPIRAL-1.2565 IS DISTORTING EXCESSIVELY.
   ELEMENT SPIRAL-1.2566 IS DISTORTING EXCESSIVELY.
   ELEMENT SPIRAL-1.2568 IS DISTORTING EXCESSIVELY.
   ELEMENT SPIRAL-1.2569 IS DISTORTING EXCESSIVELY.
   ELEMENT SPIRAL-1.2570 IS DISTORTING EXCESSIVELY.
   ELEMENT SPIRAL-1.2571 IS DISTORTING EXCESSIVELY.
   ELEMENT SPIRAL-1.2572 IS DISTORTING EXCESSIVELY.
   ELEMENT SPIRAL-1.2573 IS DISTORTING EXCESSIVELY.
   ELEMENT SPIRAL-1.2574 IS DISTORTING EXCESSIVELY.
   ELEMENT SPIRAL-1.2575 IS DISTORTING EXCESSIVELY.
   ELEMENT SPIRAL-1.2576 IS DISTORTING EXCESSIVELY.
   ELEMENT SPIRAL-1.2577 IS DISTORTING EXCESSIVELY.
   ELEMENT SPIRAL-1.2578 IS DISTORTING EXCESSIVELY.
   ELEMENT SPIRAL-1.2579 IS DISTORTING EXCESSIVELY.
   ELEMENT SPIRAL-1.2580 IS DISTORTING EXCESSIVELY.
   ELEMENT SPIRAL-1.2581 IS DISTORTING EXCESSIVELY.
   ELEMENT SPIRAL-1.2582 IS DISTORTING EXCESSIVELY.
   ELEMENT SPIRAL-1.2583 IS DISTORTING EXCESSIVELY.
   ELEMENT SPIRAL-1.2584 IS DISTORTING EXCESSIVELY.
   ELEMENT SPIRAL-1.2585 IS DISTORTING EXCESSIVELY.
   ELEMENT SPIRAL-1.2586 IS DISTORTING EXCESSIVELY.
   ELEMENT SPIRAL-1.2587 IS DISTORTING EXCESSIVELY.
   ELEMENT SPIRAL-1.2588 IS DISTORTING EXCESSIVELY.
   ELEMENT SPIRAL-1.2589 IS DISTORTING EXCESSIVELY.
   ELEMENT SPIRAL-1.2592 IS DISTORTING EXCESSIVELY.
   ELEMENT SPIRAL-1.2595 IS DISTORTING EXCESSIVELY.
   ELEMENT SPIRAL-1.2596 IS DISTORTING EXCESSIVELY.
   ELEMENT SPIRAL-1.2597 IS DISTORTING EXCESSIVELY.
   ELEMENT SPIRAL-1.2598 IS DISTORTING EXCESSIVELY.
   ELEMENT SPIRAL-1.2599 IS DISTORTING EXCESSIVELY.
   ELEMENT SPIRAL-1.2600 IS DISTORTING EXCESSIVELY.
   ELEMENT SPIRAL-1.2601 IS DISTORTING EXCESSIVELY.
   ELEMENT SPIRAL-1.2602 IS DISTORTING EXCESSIVELY.
   ELEMENT SPIRAL-1.2603 IS DISTORTING EXCESSIVELY.
   ELEMENT SPIRAL-1.2604 IS DISTORTING EXCESSIVELY.
   ELEMENT SPIRAL-1.2605 IS DISTORTING EXCESSIVELY.
   ELEMENT SPIRAL-1.2606 IS DISTORTING EXCESSIVELY.
   ELEMENT SPIRAL-1.4614 IS DISTORTING EXCESSIVELY.
   ELEMENT SPIRAL-1.4615 IS DISTORTING EXCESSIVELY.
   ELEMENT SPIRAL-1.4616 IS DISTORTING EXCESSIVELY.
   ELEMENT SPIRAL-1.4617 IS DISTORTING EXCESSIVELY.
   ELEMENT SPIRAL-1.4618 IS DISTORTING EXCESSIVELY.
   ELEMENT SPIRAL-1.4620 IS DISTORTING EXCESSIVELY.
   ELEMENT SPIRAL-1.4621 IS DISTORTING EXCESSIVELY.
   ELEMENT SPIRAL-1.4622 IS DISTORTING EXCESSIVELY.
   ELEMENT SPIRAL-1.4623 IS DISTORTING EXCESSIVELY.
   ELEMENT SPIRAL-1.4624 IS DISTORTING EXCESSIVELY.
   ELEMENT SPIRAL-1.4625 IS DISTORTING EXCESSIVELY.
   ELEMENT SPIRAL-1.4626 IS DISTORTING EXCESSIVELY.
   ELEMENT SPIRAL-1.4627 IS DISTORTING EXCESSIVELY.
   ELEMENT SPIRAL-1.4628 IS DISTORTING EXCESSIVELY.
   ELEMENT SPIRAL-1.4629 IS DISTORTING EXCESSIVELY.
   ELEMENT SPIRAL-1.4630 IS DISTORTING EXCESSIVELY.
   ELEMENT SPIRAL-1.4631 IS DISTORTING EXCESSIVELY.
   ELEMENT SPIRAL-1.4632 IS DISTORTING EXCESSIVELY.
   ELEMENT SPIRAL-1.4633 IS DISTORTING EXCESSIVELY.
   ELEMENT SPIRAL-1.4634 IS DISTORTING EXCESSIVELY.
   ELEMENT SPIRAL-1.4635 IS DISTORTING EXCESSIVELY.
   ELEMENT SPIRAL-1.4636 IS DISTORTING EXCESSIVELY.
   ELEMENT SPIRAL-1.4637 IS DISTORTING EXCESSIVELY.
   ELEMENT SPIRAL-1.4638 IS DISTORTING EXCESSIVELY.
   ELEMENT SPIRAL-1.4639 IS DISTORTING EXCESSIVELY.
   ELEMENT SPIRAL-1.4640 IS DISTORTING EXCESSIVELY.
   ELEMENT SPIRAL-1.4641 IS DISTORTING EXCESSIVELY.
   ELEMENT SPIRAL-1.4642 IS DISTORTING EXCESSIVELY.
   ELEMENT SPIRAL-1.4643 IS DISTORTING EXCESSIVELY.
   ELEMENT SPIRAL-1.4644 IS DISTORTING EXCESSIVELY.
   ELEMENT SPIRAL-1.4645 IS DISTORTING EXCESSIVELY.
   ELEMENT SPIRAL-1.4646 IS DISTORTING EXCESSIVELY.
   ELEMENT SPIRAL-1.4647 IS DISTORTING EXCESSIVELY.
   ELEMENT SPIRAL-1.4648 IS DISTORTING EXCESSIVELY.
   ELEMENT SPIRAL-1.4649 IS DISTORTING EXCESSIVELY.
   ELEMENT SPIRAL-1.4650 IS DISTORTING EXCESSIVELY.
   ELEMENT SPIRAL-1.4651 IS DISTORTING EXCESSIVELY.
   ELEMENT SPIRAL-1.4652 IS DISTORTING EXCESSIVELY.
   ELEMENT SPIRAL-1.4653 IS DISTORTING EXCESSIVELY.
   ELEMENT SPIRAL-1.4654 IS DISTORTING EXCESSIVELY.
   ELEMENT SPIRAL-1.4655 IS DISTORTING EXCESSIVELY.
   ELEMENT SPIRAL-1.4656 IS DISTORTING EXCESSIVELY.
   ELEMENT SPIRAL-1.4657 IS DISTORTING EXCESSIVELY.
   ELEMENT SPIRAL-1.4658 IS DISTORTING EXCESSIVELY.
   ELEMENT SPIRAL-1.4659 IS DISTORTING EXCESSIVELY.
   ELEMENT SPIRAL-1.4660 IS DISTORTING EXCESSIVELY.
   ELEMENT SPIRAL-1.4661 IS DISTORTING EXCESSIVELY.
   ELEMENT SPIRAL-1.4663 IS DISTORTING EXCESSIVELY.
   ELEMENT SPIRAL-1.4664 IS DISTORTING EXCESSIVELY.
   ELEMENT SPIRAL-1.4666 IS DISTORTING EXCESSIVELY.
   ELEMENT SPIRAL-1.4668 IS DISTORTING EXCESSIVELY.
   ELEMENT SPIRAL-1.4670 IS DISTORTING EXCESSIVELY.
   ELEMENT SPIRAL-1.4671 IS DISTORTING EXCESSIVELY.
   ELEMENT SPIRAL-1.4676 IS DISTORTING EXCESSIVELY.
   ELEMENT SPIRAL-1.4677 IS DISTORTING EXCESSIVELY.
   ELEMENT SPIRAL-1.4678 IS DISTORTING EXCESSIVELY.
   ELEMENT SPIRAL-1.4679 IS DISTORTING EXCESSIVELY.
   ELEMENT SPIRAL-1.4681 IS DISTORTING EXCESSIVELY.
   ELEMENT SPIRAL-1.4682 IS DISTORTING EXCESSIVELY.
   ELEMENT SPIRAL-1.4683 IS DISTORTING EXCESSIVELY.
   ELEMENT SPIRAL-1.4684 IS DISTORTING EXCESSIVELY.
   ELEMENT SPIRAL-1.4685 IS DISTORTING EXCESSIVELY.
   ELEMENT SPIRAL-1.4686 IS DISTORTING EXCESSIVELY.
   ELEMENT SPIRAL-1.4687 IS DISTORTING EXCESSIVELY.
   ELEMENT SPIRAL-1.4688 IS DISTORTING EXCESSIVELY.
   ELEMENT SPIRAL-1.4689 IS DISTORTING EXCESSIVELY.
   ELEMENT SPIRAL-1.5434 IS DISTORTING EXCESSIVELY.
   ELEMENT SPIRAL-1.5435 IS DISTORTING EXCESSIVELY.
   ELEMENT SPIRAL-1.5436 IS DISTORTING EXCESSIVELY.
   ELEMENT SPIRAL-1.5437 IS DISTORTING EXCESSIVELY.
   ELEMENT SPIRAL-1.5438 IS DISTORTING EXCESSIVELY.
   ELEMENT SPIRAL-1.5439 IS DISTORTING EXCESSIVELY.
   ELEMENT SPIRAL-1.5440 IS DISTORTING EXCESSIVELY.
   ELEMENT SPIRAL-1.5441 IS DISTORTING EXCESSIVELY.
   ELEMENT SPIRAL-1.5442 IS DISTORTING EXCESSIVELY.
   ELEMENT SPIRAL-1.5443 IS DISTORTING EXCESSIVELY.
   ELEMENT SPIRAL-1.5444 IS DISTORTING EXCESSIVELY.
   ELEMENT SPIRAL-1.5445 IS DISTORTING EXCESSIVELY.
   ELEMENT SPIRAL-1.5446 IS DISTORTING EXCESSIVELY.
   ELEMENT SPIRAL-1.5447 IS DISTORTING EXCESSIVELY.
   ELEMENT SPIRAL-1.5448 IS DISTORTING EXCESSIVELY.
   ELEMENT SPIRAL-1.5449 IS DISTORTING EXCESSIVELY.
   ELEMENT SPIRAL-1.5450 IS DISTORTING EXCESSIVELY.
   ELEMENT SPIRAL-1.5451 IS DISTORTING EXCESSIVELY.
   ELEMENT SPIRAL-1.5454 IS DISTORTING EXCESSIVELY.
   ELEMENT SPIRAL-1.5455 IS DISTORTING EXCESSIVELY.
   ELEMENT SPIRAL-1.5456 IS DISTORTING EXCESSIVELY.
   ELEMENT SPIRAL-1.5457 IS DISTORTING EXCESSIVELY.
   ELEMENT SPIRAL-1.5458 IS DISTORTING EXCESSIVELY.
   ELEMENT SPIRAL-1.5459 IS DISTORTING EXCESSIVELY.
   ELEMENT SPIRAL-1.5460 IS DISTORTING EXCESSIVELY.
   ELEMENT SPIRAL-1.5463 IS DISTORTING EXCESSIVELY.
   ELEMENT SPIRAL-1.5464 IS DISTORTING EXCESSIVELY.
   ELEMENT SPIRAL-1.5465 IS DISTORTING EXCESSIVELY.
   ELEMENT SPIRAL-1.5466 IS DISTORTING EXCESSIVELY.
   ELEMENT SPIRAL-1.5467 IS DISTORTING EXCESSIVELY.
   ELEMENT SPIRAL-1.5468 IS DISTORTING EXCESSIVELY.
   ELEMENT SPIRAL-1.5469 IS DISTORTING EXCESSIVELY.
   ELEMENT SPIRAL-1.5470 IS DISTORTING EXCESSIVELY.
   ELEMENT SPIRAL-1.5473 IS DISTORTING EXCESSIVELY.
   ELEMENT SPIRAL-1.5474 IS DISTORTING EXCESSIVELY.
   ELEMENT SPIRAL-1.5475 IS DISTORTING EXCESSIVELY.
   ELEMENT SPIRAL-1.5476 IS DISTORTING EXCESSIVELY.
   ELEMENT SPIRAL-1.5477 IS DISTORTING EXCESSIVELY.
   ELEMENT SPIRAL-1.5478 IS DISTORTING EXCESSIVELY.
   ELEMENT SPIRAL-1.5479 IS DISTORTING EXCESSIVELY.
   ELEMENT SPIRAL-1.5480 IS DISTORTING EXCESSIVELY.
   ELEMENT SPIRAL-1.5481 IS DISTORTING EXCESSIVELY.
   ELEMENT SPIRAL-1.5482 IS DISTORTING EXCESSIVELY.
   ELEMENT SPIRAL-1.5483 IS DISTORTING EXCESSIVELY.
   ELEMENT SPIRAL-1.5484 IS DISTORTING EXCESSIVELY.
   ELEMENT SPIRAL-1.5486 IS DISTORTING EXCESSIVELY.
   ELEMENT SPIRAL-1.5488 IS DISTORTING EXCESSIVELY.
   ELEMENT SPIRAL-1.5489 IS DISTORTING EXCESSIVELY.
   ELEMENT SPIRAL-1.5491 IS DISTORTING EXCESSIVELY.
   ELEMENT SPIRAL-1.5492 IS DISTORTING EXCESSIVELY.
   ELEMENT SPIRAL-1.5493 IS DISTORTING EXCESSIVELY.
   ELEMENT SPIRAL-1.5494 IS DISTORTING EXCESSIVELY.
   ELEMENT SPIRAL-1.5495 IS DISTORTING EXCESSIVELY.
   ELEMENT SPIRAL-1.5496 IS DISTORTING EXCESSIVELY.
   ELEMENT SPIRAL-1.5498 IS DISTORTING EXCESSIVELY.
   ELEMENT SPIRAL-1.5503 IS DISTORTING EXCESSIVELY.
   ELEMENT SPIRAL-1.5504 IS DISTORTING EXCESSIVELY.
   ELEMENT SPIRAL-1.5505 IS DISTORTING EXCESSIVELY.
   ELEMENT SPIRAL-1.5506 IS DISTORTING EXCESSIVELY.
   ELEMENT SPIRAL-1.5507 IS DISTORTING EXCESSIVELY.
   ELEMENT SPIRAL-1.5508 IS DISTORTING EXCESSIVELY.
   ELEMENT SPIRAL-1.5509 IS DISTORTING EXCESSIVELY.
   ELEMENT SPIRAL-1.5510 IS DISTORTING EXCESSIVELY.
   ELEMENT SPIRAL-1.5511 IS DISTORTING EXCESSIVELY.
   ELEMENT SPIRAL-1.5512 IS DISTORTING EXCESSIVELY.
   ELEMENT SPIRAL-1.5515 IS DISTORTING EXCESSIVELY.
   ELEMENT SPIRAL-1.5516 IS DISTORTING EXCESSIVELY.
   ELEMENT SPIRAL-1.5517 IS DISTORTING EXCESSIVELY.
   ELEMENT SPIRAL-1.5518 IS DISTORTING EXCESSIVELY.
   ELEMENT SPIRAL-1.5519 IS DISTORTING EXCESSIVELY.
   ELEMENT SPIRAL-1.5520 IS DISTORTING EXCESSIVELY.
   ELEMENT SPIRAL-1.5521 IS DISTORTING EXCESSIVELY.
   ELEMENT SPIRAL-1.5522 IS DISTORTING EXCESSIVELY.
   ELEMENT SPIRAL-1.5523 IS DISTORTING EXCESSIVELY.
   ELEMENT SPIRAL-1.5524 IS DISTORTING EXCESSIVELY.
   ELEMENT SPIRAL-1.5525 IS DISTORTING EXCESSIVELY.
   ELEMENT SPIRAL-1.5526 IS DISTORTING EXCESSIVELY.
   ELEMENT SPIRAL-1.5527 IS DISTORTING EXCESSIVELY.
   ELEMENT SPIRAL-1.5528 IS DISTORTING EXCESSIVELY.
   ELEMENT SPIRAL-1.5529 IS DISTORTING EXCESSIVELY.
   ELEMENT SPIRAL-1.5530 IS DISTORTING EXCESSIVELY.
   ELEMENT SPIRAL-1.5531 IS DISTORTING EXCESSIVELY.
   ELEMENT SPIRAL-1.5537 IS DISTORTING EXCESSIVELY.
   ELEMENT SPIRAL-1.5538 IS DISTORTING EXCESSIVELY.
   ELEMENT SPIRAL-1.5539 IS DISTORTING EXCESSIVELY.
   ELEMENT SPIRAL-1.5540 IS DISTORTING EXCESSIVELY.
   ELEMENT SPIRAL-1.5541 IS DISTORTING EXCESSIVELY.
   ELEMENT SPIRAL-1.5542 IS DISTORTING EXCESSIVELY.
   ELEMENT SPIRAL-1.5543 IS DISTORTING EXCESSIVELY.
   ELEMENT SPIRAL-1.5544 IS DISTORTING EXCESSIVELY.
   ELEMENT SPIRAL-1.5545 IS DISTORTING EXCESSIVELY.
   ELEMENT SPIRAL-1.5546 IS DISTORTING EXCESSIVELY.
   ELEMENT SPIRAL-1.5547 IS DISTORTING EXCESSIVELY.
   ELEMENT SPIRAL-1.5548 IS DISTORTING EXCESSIVELY.
   ELEMENT SPIRAL-1.5551 IS DISTORTING EXCESSIVELY.
   ELEMENT SPIRAL-1.5552 IS DISTORTING EXCESSIVELY.
   ELEMENT SPIRAL-1.5553 IS DISTORTING EXCESSIVELY.
   ELEMENT SPIRAL-1.5554 IS DISTORTING EXCESSIVELY.
   ELEMENT SPIRAL-1.5555 IS DISTORTING EXCESSIVELY.
   ELEMENT SPIRAL-1.5556 IS DISTORTING EXCESSIVELY.
   ELEMENT SPIRAL-1.5557 IS DISTORTING EXCESSIVELY.
   ELEMENT SPIRAL-1.5558 IS DISTORTING EXCESSIVELY.
   ELEMENT SPIRAL-1.5559 IS DISTORTING EXCESSIVELY.
   ELEMENT SPIRAL-1.5560 IS DISTORTING EXCESSIVELY.
   ELEMENT SPIRAL-1.5561 IS DISTORTING EXCESSIVELY.
   ELEMENT SPIRAL-1.5562 IS DISTORTING EXCESSIVELY.
   ELEMENT SPIRAL-1.5563 IS DISTORTING EXCESSIVELY.
   ELEMENT SPIRAL-1.5564 IS DISTORTING EXCESSIVELY.
   ELEMENT SPIRAL-1.5565 IS DISTORTING EXCESSIVELY.
   ELEMENT SPIRAL-1.5566 IS DISTORTING EXCESSIVELY.
   ELEMENT SPIRAL-1.5567 IS DISTORTING EXCESSIVELY.
   ELEMENT SPIRAL-1.5568 IS DISTORTING EXCESSIVELY.
   ELEMENT SPIRAL-1.5569 IS DISTORTING EXCESSIVELY.
   ELEMENT SPIRAL-1.5570 IS DISTORTING EXCESSIVELY.
   ELEMENT SPIRAL-1.5572 IS DISTORTING EXCESSIVELY.
   ELEMENT SPIRAL-1.5573 IS DISTORTING EXCESSIVELY.
   ELEMENT SPIRAL-1.5574 IS DISTORTING EXCESSIVELY.
   ELEMENT SPIRAL-1.5575 IS DISTORTING EXCESSIVELY.
   ELEMENT SPIRAL-1.5576 IS DISTORTING EXCESSIVELY.
   ELEMENT SPIRAL-1.5577 IS DISTORTING EXCESSIVELY.
   ELEMENT SPIRAL-1.5578 IS DISTORTING EXCESSIVELY.
   ELEMENT SPIRAL-1.5579 IS DISTORTING EXCESSIVELY.
   ELEMENT SPIRAL-1.5580 IS DISTORTING EXCESSIVELY.
   ELEMENT SPIRAL-1.5581 IS DISTORTING EXCESSIVELY.
   ELEMENT SPIRAL-1.5582 IS DISTORTING EXCESSIVELY.
   ELEMENT SPIRAL-1.5583 IS DISTORTING EXCESSIVELY.
   ELEMENT SPIRAL-1.5584 IS DISTORTING EXCESSIVELY.
   ELEMENT SPIRAL-1.5585 IS DISTORTING EXCESSIVELY.
   ELEMENT SPIRAL-1.5586 IS DISTORTING EXCESSIVELY.
   ELEMENT SPIRAL-1.5587 IS DISTORTING EXCESSIVELY.
   ELEMENT SPIRAL-1.5588 IS DISTORTING EXCESSIVELY.
   ELEMENT SPIRAL-1.5589 IS DISTORTING EXCESSIVELY.
   ELEMENT SPIRAL-1.5590 IS DISTORTING EXCESSIVELY.
   ELEMENT SPIRAL-1.5591 IS DISTORTING EXCESSIVELY.
   ELEMENT SPIRAL-1.5592 IS DISTORTING EXCESSIVELY.
   ELEMENT SPIRAL-1.5596 IS DISTORTING EXCESSIVELY.
   ELEMENT SPIRAL-1.5597 IS DISTORTING EXCESSIVELY.
   ELEMENT SPIRAL-1.5598 IS DISTORTING EXCESSIVELY.
   ELEMENT SPIRAL-1.5600 IS DISTORTING EXCESSIVELY.
   ELEMENT SPIRAL-1.5601 IS DISTORTING EXCESSIVELY.
   ELEMENT SPIRAL-1.5603 IS DISTORTING EXCESSIVELY.
   ELEMENT SPIRAL-1.5604 IS DISTORTING EXCESSIVELY.
   ELEMENT SPIRAL-1.5605 IS DISTORTING EXCESSIVELY.
   ELEMENT SPIRAL-1.5606 IS DISTORTING EXCESSIVELY.
   ELEMENT SPIRAL-1.5607 IS DISTORTING EXCESSIVELY.
   ELEMENT SPIRAL-1.5610 IS DISTORTING EXCESSIVELY.
   ELEMENT SPIRAL-1.5611 IS DISTORTING EXCESSIVELY.
   ELEMENT SPIRAL-1.5612 IS DISTORTING EXCESSIVELY.
   ELEMENT SPIRAL-1.5613 IS DISTORTING EXCESSIVELY.
   ELEMENT SPIRAL-1.5614 IS DISTORTING EXCESSIVELY.
   ELEMENT SPIRAL-1.5615 IS DISTORTING EXCESSIVELY.
   ELEMENT SPIRAL-1.5616 IS DISTORTING EXCESSIVELY.
   ELEMENT SPIRAL-1.5617 IS DISTORTING EXCESSIVELY.
   ELEMENT SPIRAL-1.5618 IS DISTORTING EXCESSIVELY.
   ELEMENT SPIRAL-1.5619 IS DISTORTING EXCESSIVELY.
   ELEMENT SPIRAL-1.5620 IS DISTORTING EXCESSIVELY.
   ELEMENT SPIRAL-1.5621 IS DISTORTING EXCESSIVELY.
   ELEMENT SPIRAL-1.5622 IS DISTORTING EXCESSIVELY.
   ELEMENT SPIRAL-1.5623 IS DISTORTING EXCESSIVELY.
   ELEMENT SPIRAL-1.5624 IS DISTORTING EXCESSIVELY.
   ELEMENT SPIRAL-1.5625 IS DISTORTING EXCESSIVELY.
   ELEMENT SPIRAL-1.5626 IS DISTORTING EXCESSIVELY.
   ELEMENT SPIRAL-1.5627 IS DISTORTING EXCESSIVELY.
   ELEMENT SPIRAL-1.5628 IS DISTORTING EXCESSIVELY.
   ELEMENT SPIRAL-1.5629 IS DISTORTING EXCESSIVELY.
   ELEMENT SPIRAL-1.5631 IS DISTORTING EXCESSIVELY.
   ELEMENT SPIRAL-1.5633 IS DISTORTING EXCESSIVELY.
   ELEMENT SPIRAL-1.5635 IS DISTORTING EXCESSIVELY.
   ELEMENT SPIRAL-1.5636 IS DISTORTING EXCESSIVELY.
   ELEMENT SPIRAL-1.5638 IS DISTORTING EXCESSIVELY.
   ELEMENT SPIRAL-1.5639 IS DISTORTING EXCESSIVELY.
   ELEMENT SPIRAL-1.5640 IS DISTORTING EXCESSIVELY.
   ELEMENT SPIRAL-1.5641 IS DISTORTING EXCESSIVELY.
   ELEMENT SPIRAL-1.5642 IS DISTORTING EXCESSIVELY.
   ELEMENT SPIRAL-1.5643 IS DISTORTING EXCESSIVELY.
   ELEMENT SPIRAL-1.5644 IS DISTORTING EXCESSIVELY.
   ELEMENT SPIRAL-1.5645 IS DISTORTING EXCESSIVELY.
   ELEMENT SPIRAL-1.5646 IS DISTORTING EXCESSIVELY.
   ELEMENT SPIRAL-1.5647 IS DISTORTING EXCESSIVELY.
   ELEMENT SPIRAL-1.5648 IS DISTORTING EXCESSIVELY.
   ELEMENT SPIRAL-1.5649 IS DISTORTING EXCESSIVELY.
   ELEMENT SPIRAL-1.5650 IS DISTORTING EXCESSIVELY.
   ELEMENT SPIRAL-1.5651 IS DISTORTING EXCESSIVELY.
   ELEMENT SPIRAL-1.5652 IS DISTORTING EXCESSIVELY.
   ELEMENT SPIRAL-1.5653 IS DISTORTING EXCESSIVELY.
   ELEMENT SPIRAL-1.5654 IS DISTORTING EXCESSIVELY.
   ELEMENT SPIRAL-1.5655 IS DISTORTING EXCESSIVELY.
   ELEMENT SPIRAL-1.5656 IS DISTORTING EXCESSIVELY.
   ELEMENT SPIRAL-1.5657 IS DISTORTING EXCESSIVELY.
   ELEMENT SPIRAL-1.5658 IS DISTORTING EXCESSIVELY.
   ELEMENT SPIRAL-1.5659 IS DISTORTING EXCESSIVELY.
   ELEMENT SPIRAL-1.5660 IS DISTORTING EXCESSIVELY.
   ELEMENT SPIRAL-1.5661 IS DISTORTING EXCESSIVELY.
   ELEMENT SPIRAL-1.5662 IS DISTORTING EXCESSIVELY.
   ELEMENT SPIRAL-1.5663 IS DISTORTING EXCESSIVELY.
   ELEMENT SPIRAL-1.5664 IS DISTORTING EXCESSIVELY.
   ELEMENT SPIRAL-1.5665 IS DISTORTING EXCESSIVELY.
   ELEMENT SPIRAL-1.5667 IS DISTORTING EXCESSIVELY.
   ELEMENT SPIRAL-1.5668 IS DISTORTING EXCESSIVELY.
   ELEMENT SPIRAL-1.5670 IS DISTORTING EXCESSIVELY.
   ELEMENT SPIRAL-1.5672 IS DISTORTING EXCESSIVELY.
   ELEMENT SPIRAL-1.5673 IS DISTORTING EXCESSIVELY.
   ELEMENT SPIRAL-1.5675 IS DISTORTING EXCESSIVELY.
   ELEMENT SPIRAL-1.5676 IS DISTORTING EXCESSIVELY.
   ELEMENT SPIRAL-1.5677 IS DISTORTING EXCESSIVELY.
   ELEMENT SPIRAL-1.5678 IS DISTORTING EXCESSIVELY.
   ELEMENT SPIRAL-1.5679 IS DISTORTING EXCESSIVELY.
   ELEMENT SPIRAL-1.5680 IS DISTORTING EXCESSIVELY.
   ELEMENT SPIRAL-1.5681 IS DISTORTING EXCESSIVELY.
   ELEMENT SPIRAL-1.5682 IS DISTORTING EXCESSIVELY.
   ELEMENT SPIRAL-1.5683 IS DISTORTING EXCESSIVELY.
   ELEMENT SPIRAL-1.5684 IS DISTORTING EXCESSIVELY.
   ELEMENT SPIRAL-1.5685 IS DISTORTING EXCESSIVELY.
   ELEMENT SPIRAL-1.5686 IS DISTORTING EXCESSIVELY.
   ELEMENT SPIRAL-1.5687 IS DISTORTING EXCESSIVELY.
   ELEMENT SPIRAL-1.5689 IS DISTORTING EXCESSIVELY.
   ELEMENT SPIRAL-1.5691 IS DISTORTING EXCESSIVELY.
   ELEMENT SPIRAL-1.5694 IS DISTORTING EXCESSIVELY.
   ELEMENT SPIRAL-1.5695 IS DISTORTING EXCESSIVELY.
   ELEMENT SPIRAL-1.5696 IS DISTORTING EXCESSIVELY.
   ELEMENT SPIRAL-1.5697 IS DISTORTING EXCESSIVELY.
   ELEMENT SPIRAL-1.5698 IS DISTORTING EXCESSIVELY.
   ELEMENT SPIRAL-1.5699 IS DISTORTING EXCESSIVELY.
   ELEMENT SPIRAL-1.5701 IS DISTORTING EXCESSIVELY.
   ELEMENT SPIRAL-1.5702 IS DISTORTING EXCESSIVELY.
   ELEMENT SPIRAL-1.5703 IS DISTORTING EXCESSIVELY.
   ELEMENT SPIRAL-1.5704 IS DISTORTING EXCESSIVELY.
   ELEMENT SPIRAL-1.5705 IS DISTORTING EXCESSIVELY.
   ELEMENT SPIRAL-1.5706 IS DISTORTING EXCESSIVELY.
   ELEMENT SPIRAL-1.5707 IS DISTORTING EXCESSIVELY.
   ELEMENT SPIRAL-1.5708 IS DISTORTING EXCESSIVELY.
   ELEMENT SPIRAL-1.5709 IS DISTORTING EXCESSIVELY.
   ELEMENT SPIRAL-1.5710 IS DISTORTING EXCESSIVELY.
   ELEMENT SPIRAL-1.5711 IS DISTORTING EXCESSIVELY.
   ELEMENT SPIRAL-1.5713 IS DISTORTING EXCESSIVELY.
   ELEMENT SPIRAL-1.5714 IS DISTORTING EXCESSIVELY.
   ELEMENT SPIRAL-1.5715 IS DISTORTING EXCESSIVELY.
   ELEMENT SPIRAL-1.5716 IS DISTORTING EXCESSIVELY.
   ELEMENT SPIRAL-1.5717 IS DISTORTING EXCESSIVELY.
   ELEMENT SPIRAL-1.15663 IS DISTORTING EXCESSIVELY.
   ELEMENT SPIRAL-1.15664 IS DISTORTING EXCESSIVELY.
   ELEMENT SPIRAL-1.15665 IS DISTORTING EXCESSIVELY.
   ELEMENT SPIRAL-1.15666 IS DISTORTING EXCESSIVELY.
   ELEMENT SPIRAL-1.15668 IS DISTORTING EXCESSIVELY.
   ELEMENT SPIRAL-1.15669 IS DISTORTING EXCESSIVELY.
   ELEMENT SPIRAL-1.15670 IS DISTORTING EXCESSIVELY.
   ELEMENT SPIRAL-1.15671 IS DISTORTING EXCESSIVELY.
   ELEMENT SPIRAL-1.15672 IS DISTORTING EXCESSIVELY.
   ELEMENT SPIRAL-1.15673 IS DISTORTING EXCESSIVELY.
   ELEMENT SPIRAL-1.15674 IS DISTORTING EXCESSIVELY.
   ELEMENT SPIRAL-1.15675 IS DISTORTING EXCESSIVELY.
   ELEMENT SPIRAL-1.15676 IS DISTORTING EXCESSIVELY.
   ELEMENT SPIRAL-1.15677 IS DISTORTING EXCESSIVELY.
   ELEMENT SPIRAL-1.15678 IS DISTORTING EXCESSIVELY.
   ELEMENT SPIRAL-1.15679 IS DISTORTING EXCESSIVELY.
   ELEMENT SPIRAL-1.15680 IS DISTORTING EXCESSIVELY.
   ELEMENT SPIRAL-1.15681 IS DISTORTING EXCESSIVELY.
   ELEMENT SPIRAL-1.15682 IS DISTORTING EXCESSIVELY.
   ELEMENT SPIRAL-1.15683 IS DISTORTING EXCESSIVELY.
   ELEMENT SPIRAL-1.15684 IS DISTORTING EXCESSIVELY.
   ELEMENT SPIRAL-1.15685 IS DISTORTING EXCESSIVELY.
   ELEMENT SPIRAL-1.15686 IS DISTORTING EXCESSIVELY.
   ELEMENT SPIRAL-1.15687 IS DISTORTING EXCESSIVELY.
   ELEMENT SPIRAL-1.15688 IS DISTORTING EXCESSIVELY.
   ELEMENT SPIRAL-1.15689 IS DISTORTING EXCESSIVELY.

 ***WARNING: EXCESSIVE DISTORTION AT A TOTAL OF 490 INTEGRATION POINTS IN SOLID 
             (CONTINUUM) ELEMENTS
 

 ***NOTE: ELEMENTS ARE DISTORTING EXCESSIVELY. CONVERGENCE IS JUDGED UNLIKELY.


  INCREMENT     1 STARTS. ATTEMPT NUMBER  2, TIME INCREMENT  0.250    
 
	SYMMETRIC PURE THREAD-BASED DIRECT SPARSE SOLVER RUNNING ON
 	1 HOST x 1 MPI RANK PER HOST x 1 THREAD PER RANK
        NUMBER OF EQUATIONS:  90774
        NUMBER OF RHS:        1
        NUMBER OF FLOPS:      6.037e+09
        SOLVER ELAPSED TIME:  492ms

               CONVERGENCE CHECKS FOR EQUILIBRIUM ITERATION     1


 AVERAGE FORCE                       10.6       TIME AVG. FORCE        10.6    
 LARGEST SCALED RESIDUAL FORCE       239.       AT NODE      11029   DOF  3
   INSTANCE: SPIRAL-1                                                                        
  CORRESPONDING RESIDUAL FORCE       239.    
 LARGEST INCREMENT OF DISP.        -8.912E-03   AT NODE       3156   DOF  3
   INSTANCE: SPIRAL-1                                                                        
 LARGEST CORRECTION TO DISP.       -8.912E-03   AT NODE       3156   DOF  3
   INSTANCE: SPIRAL-1                                                                        
          FORCE     EQUILIBRIUM NOT ACHIEVED WITHIN TOLERANCE.
 
	SYMMETRIC PURE THREAD-BASED DIRECT SPARSE SOLVER RUNNING ON
 	1 HOST x 1 MPI RANK PER HOST x 1 THREAD PER RANK
        NUMBER OF EQUATIONS:  90774
        NUMBER OF RHS:        1
        NUMBER OF FLOPS:      6.037e+09
        SOLVER ELAPSED TIME:  481ms

               CONVERGENCE CHECKS FOR EQUILIBRIUM ITERATION     2


 AVERAGE FORCE                      0.360       TIME AVG. FORCE       0.360    
 LARGEST SCALED RESIDUAL FORCE      -7.94       AT NODE      11029   DOF  3
   INSTANCE: SPIRAL-1                                                                        
  CORRESPONDING RESIDUAL FORCE      -7.94    
 LARGEST INCREMENT OF DISP.        -8.759E-03   AT NODE        245   DOF  3
   INSTANCE: SPIRAL-1                                                                        
 LARGEST CORRECTION TO DISP.       -7.931E-04   AT NODE        245   DOF  1
   INSTANCE: SPIRAL-1                                                                        
          FORCE     EQUILIBRIUM NOT ACHIEVED WITHIN TOLERANCE.
 
	SYMMETRIC PURE THREAD-BASED DIRECT SPARSE SOLVER RUNNING ON
 	1 HOST x 1 MPI RANK PER HOST x 1 THREAD PER RANK
        NUMBER OF EQUATIONS:  90774
        NUMBER OF RHS:        1
        NUMBER OF FLOPS:      6.037e+09
        SOLVER ELAPSED TIME:  483ms
 

 ***WARNING: THE SYSTEM MATRIX HAS 25 NEGATIVE EIGENVALUES.
             EXPLANATIONS ARE SUGGESTED AFTER THE FIRST OCCURRENCE OF THIS MESSAGE.

               CONVERGENCE CHECKS FOR EQUILIBRIUM ITERATION     3


 AVERAGE FORCE                      4.205E-02   TIME AVG. FORCE       4.205E-02
 LARGEST SCALED RESIDUAL FORCE       2.33       AT NODE      17349   DOF  2
   INSTANCE: SPIRAL-1                                                                        
  CORRESPONDING RESIDUAL FORCE       2.33    
 LARGEST INCREMENT OF DISP.        -8.754E-03   AT NODE        245   DOF  3
   INSTANCE: SPIRAL-1                                                                        
 LARGEST CORRECTION TO DISP.       -9.573E-04   AT NODE        166   DOF  2
   INSTANCE: SPIRAL-1                                                                        
          FORCE     EQUILIBRIUM NOT ACHIEVED WITHIN TOLERANCE.
 
	SYMMETRIC PURE THREAD-BASED DIRECT SPARSE SOLVER RUNNING ON
 	1 HOST x 1 MPI RANK PER HOST x 1 THREAD PER RANK
        NUMBER OF EQUATIONS:  90774
        NUMBER OF RHS:        1
        NUMBER OF FLOPS:      6.037e+09
        SOLVER ELAPSED TIME:  490ms
 

 ***WARNING: THE SYSTEM MATRIX HAS 10 NEGATIVE EIGENVALUES.
             EXPLANATIONS ARE SUGGESTED AFTER THE FIRST OCCURRENCE OF THIS MESSAGE.

               CONVERGENCE CHECKS FOR EQUILIBRIUM ITERATION     4


 AVERAGE FORCE                      1.529E-02   TIME AVG. FORCE       1.529E-02
 LARGEST SCALED RESIDUAL FORCE     -0.478       AT NODE       2494   DOF  1
   INSTANCE: SPIRAL-1                                                                        
  CORRESPONDING RESIDUAL FORCE     -0.478    
 LARGEST INCREMENT OF DISP.        -8.710E-03   AT NODE        245   DOF  3
   INSTANCE: SPIRAL-1                                                                        
 LARGEST CORRECTION TO DISP.        1.060E-04   AT NODE         41   DOF  2
   INSTANCE: SPIRAL-1                                                                        
          FORCE     EQUILIBRIUM NOT ACHIEVED WITHIN TOLERANCE.
 
	SYMMETRIC PURE THREAD-BASED DIRECT SPARSE SOLVER RUNNING ON
 	1 HOST x 1 MPI RANK PER HOST x 1 THREAD PER RANK
        NUMBER OF EQUATIONS:  90774
        NUMBER OF RHS:        1
        NUMBER OF FLOPS:      6.037e+09
        SOLVER ELAPSED TIME:  491ms

               CONVERGENCE CHECKS FOR EQUILIBRIUM ITERATION     5


 AVERAGE FORCE                      4.508E-02   TIME AVG. FORCE       4.508E-02
 LARGEST SCALED RESIDUAL FORCE      -1.08       AT NODE       9497   DOF  3
   INSTANCE: SPIRAL-1                                                                        
  CORRESPONDING RESIDUAL FORCE      -1.08    
 LARGEST INCREMENT OF DISP.         8.151E-03   AT NODE        255   DOF  3
   INSTANCE: SPIRAL-1                                                                        
 LARGEST CORRECTION TO DISP.        5.884E-04   AT NODE        245   DOF  3
   INSTANCE: SPIRAL-1                                                                        
          FORCE     EQUILIBRIUM NOT ACHIEVED WITHIN TOLERANCE.
 
	SYMMETRIC PURE THREAD-BASED DIRECT SPARSE SOLVER RUNNING ON
 	1 HOST x 1 MPI RANK PER HOST x 1 THREAD PER RANK
        NUMBER OF EQUATIONS:  90774
        NUMBER OF RHS:        1
        NUMBER OF FLOPS:      6.037e+09
        SOLVER ELAPSED TIME:  484ms

               CONVERGENCE CHECKS FOR EQUILIBRIUM ITERATION     6


 AVERAGE FORCE                      1.161E-02   TIME AVG. FORCE       1.161E-02
 LARGEST SCALED RESIDUAL FORCE     -7.106E-02   AT NODE       2400   DOF  1
   INSTANCE: SPIRAL-1                                                                        
  CORRESPONDING RESIDUAL FORCE     -7.106E-02
 LARGEST INCREMENT OF DISP.         8.140E-03   AT NODE        255   DOF  3
   INSTANCE: SPIRAL-1                                                                        
 LARGEST CORRECTION TO DISP.       -1.103E-05   AT NODE        265   DOF  3
   INSTANCE: SPIRAL-1                                                                        
          FORCE     EQUILIBRIUM NOT ACHIEVED WITHIN TOLERANCE.
 
	SYMMETRIC PURE THREAD-BASED DIRECT SPARSE SOLVER RUNNING ON
 	1 HOST x 1 MPI RANK PER HOST x 1 THREAD PER RANK
        NUMBER OF EQUATIONS:  90774
        NUMBER OF RHS:        1
        NUMBER OF FLOPS:      6.037e+09
        SOLVER ELAPSED TIME:  474ms

               CONVERGENCE CHECKS FOR EQUILIBRIUM ITERATION     7


 AVERAGE FORCE                      0.260       TIME AVG. FORCE       0.260    
 LARGEST SCALED RESIDUAL FORCE       7.03       AT NODE      11029   DOF  3
   INSTANCE: SPIRAL-1                                                                        
  CORRESPONDING RESIDUAL FORCE       7.03    
 LARGEST INCREMENT OF DISP.         6.973E-03   AT NODE        255   DOF  3
   INSTANCE: SPIRAL-1                                                                        
 LARGEST CORRECTION TO DISP.        1.500E-03   AT NODE        245   DOF  3
   INSTANCE: SPIRAL-1                                                                        
          FORCE     EQUILIBRIUM NOT ACHIEVED WITHIN TOLERANCE.
 

 ***NOTE: THE SOLUTION APPEARS TO BE DIVERGING. CONVERGENCE IS JUDGED UNLIKELY.


  INCREMENT     1 STARTS. ATTEMPT NUMBER  3, TIME INCREMENT  6.250E-02
 
	SYMMETRIC PURE THREAD-BASED DIRECT SPARSE SOLVER RUNNING ON
 	1 HOST x 1 MPI RANK PER HOST x 1 THREAD PER RANK
        NUMBER OF EQUATIONS:  90774
        NUMBER OF RHS:        1
        NUMBER OF FLOPS:      6.037e+09
        SOLVER ELAPSED TIME:  491ms

               CONVERGENCE CHECKS FOR EQUILIBRIUM ITERATION     1


 AVERAGE FORCE                      0.646       TIME AVG. FORCE       0.646    
 LARGEST SCALED RESIDUAL FORCE       14.7       AT NODE      11029   DOF  3
   INSTANCE: SPIRAL-1                                                                        
  CORRESPONDING RESIDUAL FORCE       14.7    
 LARGEST INCREMENT OF DISP.        -2.199E-03   AT NODE       3156   DOF  3
   INSTANCE: SPIRAL-1                                                                        
 LARGEST CORRECTION TO DISP.       -2.199E-03   AT NODE       3156   DOF  3
   INSTANCE: SPIRAL-1                                                                        
          FORCE     EQUILIBRIUM NOT ACHIEVED WITHIN TOLERANCE.
 
	SYMMETRIC PURE THREAD-BASED DIRECT SPARSE SOLVER RUNNING ON
 	1 HOST x 1 MPI RANK PER HOST x 1 THREAD PER RANK
        NUMBER OF EQUATIONS:  90774
        NUMBER OF RHS:        1
        NUMBER OF FLOPS:      6.037e+09
        SOLVER ELAPSED TIME:  482ms

               CONVERGENCE CHECKS FOR EQUILIBRIUM ITERATION     2


 AVERAGE FORCE                      4.522E-03   TIME AVG. FORCE       4.522E-03
 LARGEST SCALED RESIDUAL FORCE     -2.943E-02   AT NODE      11029   DOF  3
   INSTANCE: SPIRAL-1                                                                        
  CORRESPONDING RESIDUAL FORCE     -2.943E-02
 LARGEST INCREMENT OF DISP.        -2.196E-03   AT NODE        245   DOF  3
   INSTANCE: SPIRAL-1                                                                        
 LARGEST CORRECTION TO DISP.       -6.346E-05   AT NODE        166   DOF  2
   INSTANCE: SPIRAL-1                                                                        
          FORCE     EQUILIBRIUM NOT ACHIEVED WITHIN TOLERANCE.
 
	SYMMETRIC PURE THREAD-BASED DIRECT SPARSE SOLVER RUNNING ON
 	1 HOST x 1 MPI RANK PER HOST x 1 THREAD PER RANK
        NUMBER OF EQUATIONS:  90774
        NUMBER OF RHS:        1
        NUMBER OF FLOPS:      6.037e+09
        SOLVER ELAPSED TIME:  478ms
 

 ***WARNING: THE SYSTEM MATRIX HAS 3 NEGATIVE EIGENVALUES.
             EXPLANATIONS ARE SUGGESTED AFTER THE FIRST OCCURRENCE OF THIS MESSAGE.

               CONVERGENCE CHECKS FOR EQUILIBRIUM ITERATION     3


 AVERAGE FORCE                      3.474E-03   TIME AVG. FORCE       3.474E-03
 LARGEST SCALED RESIDUAL FORCE     -0.159       AT NODE       8665   DOF  3
   INSTANCE: SPIRAL-1                                                                        
  CORRESPONDING RESIDUAL FORCE     -0.159    
 LARGEST INCREMENT OF DISP.        -2.254E-03   AT NODE        245   DOF  3
   INSTANCE: SPIRAL-1                                                                        
 LARGEST CORRECTION TO DISP.        1.057E-04   AT NODE         41   DOF  3
   INSTANCE: SPIRAL-1                                                                        
          FORCE     EQUILIBRIUM NOT ACHIEVED WITHIN TOLERANCE.
 
	SYMMETRIC PURE THREAD-BASED DIRECT SPARSE SOLVER RUNNING ON
 	1 HOST x 1 MPI RANK PER HOST x 1 THREAD PER RANK
        NUMBER OF EQUATIONS:  90774
        NUMBER OF RHS:        1
        NUMBER OF FLOPS:      6.037e+09
        SOLVER ELAPSED TIME:  487ms

               CONVERGENCE CHECKS FOR EQUILIBRIUM ITERATION     4


 AVERAGE FORCE                      3.155E-03   TIME AVG. FORCE       3.155E-03
 LARGEST SCALED RESIDUAL FORCE      1.116E-02   AT NODE      11029   DOF  3
   INSTANCE: SPIRAL-1                                                                        
  CORRESPONDING RESIDUAL FORCE      1.116E-02
 LARGEST INCREMENT OF DISP.        -2.193E-03   AT NODE        245   DOF  3
   INSTANCE: SPIRAL-1                                                                        
 LARGEST CORRECTION TO DISP.        6.034E-05   AT NODE        245   DOF  3
   INSTANCE: SPIRAL-1                                                                        
          FORCE     EQUILIBRIUM NOT ACHIEVED WITHIN TOLERANCE.
 
	SYMMETRIC PURE THREAD-BASED DIRECT SPARSE SOLVER RUNNING ON
 	1 HOST x 1 MPI RANK PER HOST x 1 THREAD PER RANK
        NUMBER OF EQUATIONS:  90774
        NUMBER OF RHS:        1
        NUMBER OF FLOPS:      6.037e+09
        SOLVER ELAPSED TIME:  483ms

               CONVERGENCE CHECKS FOR EQUILIBRIUM ITERATION     5


 AVERAGE FORCE                      3.032E-03   TIME AVG. FORCE       3.032E-03
 LARGEST SCALED RESIDUAL FORCE     -5.123E-02   AT NODE       8665   DOF  3
   INSTANCE: SPIRAL-1                                                                        
  CORRESPONDING RESIDUAL FORCE     -5.123E-02
 LARGEST INCREMENT OF DISP.        -2.151E-03   AT NODE        245   DOF  3
   INSTANCE: SPIRAL-1                                                                        
 LARGEST CORRECTION TO DISP.       -6.052E-05   AT NODE         41   DOF  3
   INSTANCE: SPIRAL-1                                                                        
          FORCE     EQUILIBRIUM NOT ACHIEVED WITHIN TOLERANCE.
 
	SYMMETRIC PURE THREAD-BASED DIRECT SPARSE SOLVER RUNNING ON
 	1 HOST x 1 MPI RANK PER HOST x 1 THREAD PER RANK
        NUMBER OF EQUATIONS:  90774
        NUMBER OF RHS:        1
        NUMBER OF FLOPS:      6.037e+09
        SOLVER ELAPSED TIME:  491ms

               CONVERGENCE CHECKS FOR EQUILIBRIUM ITERATION     6


 AVERAGE FORCE                      2.858E-03   TIME AVG. FORCE       2.858E-03
 LARGEST SCALED RESIDUAL FORCE     -2.447E-03   AT NODE       9541   DOF  3
   INSTANCE: SPIRAL-1                                                                        
  CORRESPONDING RESIDUAL FORCE     -2.447E-03
 LARGEST INCREMENT OF DISP.        -2.122E-03   AT NODE        245   DOF  3
   INSTANCE: SPIRAL-1                                                                        
 LARGEST CORRECTION TO DISP.        2.833E-05   AT NODE        245   DOF  3
   INSTANCE: SPIRAL-1                                                                        
          FORCE     EQUILIBRIUM NOT ACHIEVED WITHIN TOLERANCE.
 
	SYMMETRIC PURE THREAD-BASED DIRECT SPARSE SOLVER RUNNING ON
 	1 HOST x 1 MPI RANK PER HOST x 1 THREAD PER RANK
        NUMBER OF EQUATIONS:  90774
        NUMBER OF RHS:        1
        NUMBER OF FLOPS:      6.037e+09
        SOLVER ELAPSED TIME:  498ms

               CONVERGENCE CHECKS FOR EQUILIBRIUM ITERATION     7


 AVERAGE FORCE                      2.846E-03   TIME AVG. FORCE       2.846E-03
 LARGEST SCALED RESIDUAL FORCE     -1.742E-02   AT NODE       8665   DOF  3
   INSTANCE: SPIRAL-1                                                                        
  CORRESPONDING RESIDUAL FORCE     -1.742E-02
 LARGEST INCREMENT OF DISP.        -2.107E-03   AT NODE        245   DOF  3
   INSTANCE: SPIRAL-1                                                                        
 LARGEST CORRECTION TO DISP.       -3.953E-05   AT NODE         41   DOF  3
   INSTANCE: SPIRAL-1                                                                        
          FORCE     EQUILIBRIUM NOT ACHIEVED WITHIN TOLERANCE.
 
	SYMMETRIC PURE THREAD-BASED DIRECT SPARSE SOLVER RUNNING ON
 	1 HOST x 1 MPI RANK PER HOST x 1 THREAD PER RANK
        NUMBER OF EQUATIONS:  90774
        NUMBER OF RHS:        1
        NUMBER OF FLOPS:      6.037e+09
        SOLVER ELAPSED TIME:  493ms

               CONVERGENCE CHECKS FOR EQUILIBRIUM ITERATION     8


 AVERAGE FORCE                      2.808E-03   TIME AVG. FORCE       2.808E-03
 LARGEST SCALED RESIDUAL FORCE      2.440E-04   AT NODE      17271   DOF  2
   INSTANCE: SPIRAL-1                                                                        
  CORRESPONDING RESIDUAL FORCE      2.440E-04
 LARGEST INCREMENT OF DISP.        -2.103E-03   AT NODE        245   DOF  3
   INSTANCE: SPIRAL-1                                                                        
 LARGEST CORRECTION TO DISP.        3.727E-06   AT NODE        245   DOF  3
   INSTANCE: SPIRAL-1                                                                        
          FORCE     EQUILIBRIUM NOT ACHIEVED WITHIN TOLERANCE.
 
	SYMMETRIC PURE THREAD-BASED DIRECT SPARSE SOLVER RUNNING ON
 	1 HOST x 1 MPI RANK PER HOST x 1 THREAD PER RANK
        NUMBER OF EQUATIONS:  90774
        NUMBER OF RHS:        1
        NUMBER OF FLOPS:      6.037e+09
        SOLVER ELAPSED TIME:  495ms

               CONVERGENCE CHECKS FOR EQUILIBRIUM ITERATION     9


 AVERAGE FORCE                      2.807E-03   TIME AVG. FORCE       2.807E-03
 LARGEST SCALED RESIDUAL FORCE      5.342E-04   AT NODE      17271   DOF  3
   INSTANCE: SPIRAL-1                                                                        
  CORRESPONDING RESIDUAL FORCE      5.342E-04
 LARGEST INCREMENT OF DISP.        -2.103E-03   AT NODE        245   DOF  3
   INSTANCE: SPIRAL-1                                                                        
 LARGEST CORRECTION TO DISP.       -7.499E-06   AT NODE         41   DOF  3
   INSTANCE: SPIRAL-1                                                                        
          FORCE     EQUILIBRIUM NOT ACHIEVED WITHIN TOLERANCE.
 

 ***NOTE: THE RATE OF CONVERGENCE IS VERY SLOW. CONVERGENCE IS JUDGED UNLIKELY.


  INCREMENT     1 STARTS. ATTEMPT NUMBER  4, TIME INCREMENT  3.125E-02
 
	SYMMETRIC PURE THREAD-BASED DIRECT SPARSE SOLVER RUNNING ON
 	1 HOST x 1 MPI RANK PER HOST x 1 THREAD PER RANK
        NUMBER OF EQUATIONS:  90774
        NUMBER OF RHS:        1
        NUMBER OF FLOPS:      6.037e+09
        SOLVER ELAPSED TIME:  482ms

               CONVERGENCE CHECKS FOR EQUILIBRIUM ITERATION     1


 AVERAGE FORCE                      0.161       TIME AVG. FORCE       0.161    
 LARGEST SCALED RESIDUAL FORCE       3.65       AT NODE      11029   DOF  3
   INSTANCE: SPIRAL-1                                                                        
  CORRESPONDING RESIDUAL FORCE       3.65    
 LARGEST INCREMENT OF DISP.        -1.097E-03   AT NODE        248   DOF  3
   INSTANCE: SPIRAL-1                                                                        
 LARGEST CORRECTION TO DISP.       -1.097E-03   AT NODE        248   DOF  3
   INSTANCE: SPIRAL-1                                                                        
          FORCE     EQUILIBRIUM NOT ACHIEVED WITHIN TOLERANCE.
 
	SYMMETRIC PURE THREAD-BASED DIRECT SPARSE SOLVER RUNNING ON
 	1 HOST x 1 MPI RANK PER HOST x 1 THREAD PER RANK
        NUMBER OF EQUATIONS:  90774
        NUMBER OF RHS:        1
        NUMBER OF FLOPS:      6.037e+09
        SOLVER ELAPSED TIME:  490ms

               CONVERGENCE CHECKS FOR EQUILIBRIUM ITERATION     2


 AVERAGE FORCE                      1.515E-03   TIME AVG. FORCE       1.515E-03
 LARGEST SCALED RESIDUAL FORCE      1.827E-03   AT NODE       9541   DOF  3
   INSTANCE: SPIRAL-1                                                                        
  CORRESPONDING RESIDUAL FORCE      1.827E-03
 LARGEST INCREMENT OF DISP.        -1.096E-03   AT NODE        245   DOF  3
   INSTANCE: SPIRAL-1                                                                        
 LARGEST CORRECTION TO DISP.       -1.810E-05   AT NODE        166   DOF  2
   INSTANCE: SPIRAL-1                                                                        
          FORCE     EQUILIBRIUM NOT ACHIEVED WITHIN TOLERANCE.
 
	SYMMETRIC PURE THREAD-BASED DIRECT SPARSE SOLVER RUNNING ON
 	1 HOST x 1 MPI RANK PER HOST x 1 THREAD PER RANK
        NUMBER OF EQUATIONS:  90774
        NUMBER OF RHS:        1
        NUMBER OF FLOPS:      6.037e+09
        SOLVER ELAPSED TIME:  483ms

               CONVERGENCE CHECKS FOR EQUILIBRIUM ITERATION     3


 AVERAGE FORCE                      1.457E-03   TIME AVG. FORCE       1.457E-03
 LARGEST SCALED RESIDUAL FORCE      2.686E-03   AT NODE      11029   DOF  3
   INSTANCE: SPIRAL-1                                                                        
  CORRESPONDING RESIDUAL FORCE      2.686E-03
 LARGEST INCREMENT OF DISP.        -1.067E-03   AT NODE        245   DOF  3
   INSTANCE: SPIRAL-1                                                                        
 LARGEST CORRECTION TO DISP.        2.962E-05   AT NODE        245   DOF  3
   INSTANCE: SPIRAL-1                                                                        
          FORCE     EQUILIBRIUM NOT ACHIEVED WITHIN TOLERANCE.
 
	SYMMETRIC PURE THREAD-BASED DIRECT SPARSE SOLVER RUNNING ON
 	1 HOST x 1 MPI RANK PER HOST x 1 THREAD PER RANK
        NUMBER OF EQUATIONS:  90774
        NUMBER OF RHS:        1
        NUMBER OF FLOPS:      6.037e+09
        SOLVER ELAPSED TIME:  479ms

               CONVERGENCE CHECKS FOR EQUILIBRIUM ITERATION     4


 AVERAGE FORCE                      1.419E-03   TIME AVG. FORCE       1.419E-03
 LARGEST SCALED RESIDUAL FORCE      7.133E-05   AT NODE        981   DOF  3
   INSTANCE: SPIRAL-1                                                                        
  CORRESPONDING RESIDUAL FORCE      7.133E-05
 LARGEST INCREMENT OF DISP.        -1.071E-03   AT NODE        245   DOF  3
   INSTANCE: SPIRAL-1                                                                        
 LARGEST CORRECTION TO DISP.       -4.033E-06   AT NODE        245   DOF  3
   INSTANCE: SPIRAL-1                                                                        
          FORCE     EQUILIBRIUM NOT ACHIEVED WITHIN TOLERANCE.
 
	SYMMETRIC PURE THREAD-BASED DIRECT SPARSE SOLVER RUNNING ON
 	1 HOST x 1 MPI RANK PER HOST x 1 THREAD PER RANK
        NUMBER OF EQUATIONS:  90774
        NUMBER OF RHS:        1
        NUMBER OF FLOPS:      6.037e+09
        SOLVER ELAPSED TIME:  478ms

               CONVERGENCE CHECKS FOR EQUILIBRIUM ITERATION     5


 AVERAGE FORCE                      1.420E-03   TIME AVG. FORCE       1.420E-03
 LARGEST SCALED RESIDUAL FORCE      2.443E-05   AT NODE        981   DOF  3
   INSTANCE: SPIRAL-1                                                                        
  CORRESPONDING RESIDUAL FORCE      2.443E-05
 LARGEST INCREMENT OF DISP.        -1.072E-03   AT NODE        245   DOF  3
   INSTANCE: SPIRAL-1                                                                        
 LARGEST CORRECTION TO DISP.       -1.256E-06   AT NODE        245   DOF  3
   INSTANCE: SPIRAL-1                                                                        
          FORCE     EQUILIBRIUM NOT ACHIEVED WITHIN TOLERANCE.
 
	SYMMETRIC PURE THREAD-BASED DIRECT SPARSE SOLVER RUNNING ON
 	1 HOST x 1 MPI RANK PER HOST x 1 THREAD PER RANK
        NUMBER OF EQUATIONS:  90774
        NUMBER OF RHS:        1
        NUMBER OF FLOPS:      6.037e+09
        SOLVER ELAPSED TIME:  498ms

               CONVERGENCE CHECKS FOR EQUILIBRIUM ITERATION     6


 AVERAGE FORCE                      1.420E-03   TIME AVG. FORCE       1.420E-03
 LARGEST SCALED RESIDUAL FORCE      4.408E-07   AT NODE        981   DOF  1
   INSTANCE: SPIRAL-1                                                                        
  CORRESPONDING RESIDUAL FORCE      4.408E-07
 LARGEST INCREMENT OF DISP.        -1.072E-03   AT NODE        245   DOF  3
   INSTANCE: SPIRAL-1                                                                        
 LARGEST CORRECTION TO DISP.       -7.808E-09   AT NODE        245   DOF  3
   INSTANCE: SPIRAL-1                                                                        
          THE FORCE     EQUILIBRIUM EQUATIONS HAVE CONVERGED

 ITERATION SUMMARY FOR THE INCREMENT:   6 TOTAL ITERATIONS, OF WHICH
   0 ARE SEVERE DISCONTINUITY ITERATIONS AND  6 ARE EQUILIBRIUM ITERATIONS.

 TIME INCREMENT COMPLETED  3.125E-02,  FRACTION OF STEP COMPLETED  3.125E-02
 STEP TIME COMPLETED       3.125E-02,  TOTAL TIME COMPLETED        3.125E-02


  INCREMENT     2 STARTS. ATTEMPT NUMBER  1, TIME INCREMENT  3.125E-02
 
	SYMMETRIC PURE THREAD-BASED DIRECT SPARSE SOLVER RUNNING ON
 	1 HOST x 1 MPI RANK PER HOST x 1 THREAD PER RANK
        NUMBER OF EQUATIONS:  90774
        NUMBER OF RHS:        1
        NUMBER OF FLOPS:      6.037e+09
        SOLVER ELAPSED TIME:  493ms

               CONVERGENCE CHECKS FOR EQUILIBRIUM ITERATION     1


 AVERAGE FORCE                      4.340E-03   TIME AVG. FORCE       2.880E-03
 LARGEST SCALED RESIDUAL FORCE     -3.024E-03   AT NODE       8767   DOF  2
   INSTANCE: SPIRAL-1                                                                        
  CORRESPONDING RESIDUAL FORCE     -3.024E-03
 LARGEST INCREMENT OF DISP.        -1.031E-03   AT NODE        245   DOF  3
   INSTANCE: SPIRAL-1                                                                        
 LARGEST CORRECTION TO DISP.        4.205E-05   AT NODE        248   DOF  3
   INSTANCE: SPIRAL-1                                                                        
          FORCE     EQUILIBRIUM NOT ACHIEVED WITHIN TOLERANCE.
 
	SYMMETRIC PURE THREAD-BASED DIRECT SPARSE SOLVER RUNNING ON
 	1 HOST x 1 MPI RANK PER HOST x 1 THREAD PER RANK
        NUMBER OF EQUATIONS:  90774
        NUMBER OF RHS:        1
        NUMBER OF FLOPS:      6.037e+09
        SOLVER ELAPSED TIME:  487ms

               CONVERGENCE CHECKS FOR EQUILIBRIUM ITERATION     2


 AVERAGE FORCE                      4.290E-03   TIME AVG. FORCE       2.855E-03
 LARGEST SCALED RESIDUAL FORCE     -1.840E-05   AT NODE      17271   DOF  2
   INSTANCE: SPIRAL-1                                                                        
  CORRESPONDING RESIDUAL FORCE     -1.840E-05
 LARGEST INCREMENT OF DISP.        -1.031E-03   AT NODE        245   DOF  3
   INSTANCE: SPIRAL-1                                                                        
 LARGEST CORRECTION TO DISP.        2.467E-07   AT NODE        245   DOF  3
   INSTANCE: SPIRAL-1                                                                        
          FORCE     EQUILIBRIUM NOT ACHIEVED WITHIN TOLERANCE.
 
	SYMMETRIC PURE THREAD-BASED DIRECT SPARSE SOLVER RUNNING ON
 	1 HOST x 1 MPI RANK PER HOST x 1 THREAD PER RANK
        NUMBER OF EQUATIONS:  90774
        NUMBER OF RHS:        1
        NUMBER OF FLOPS:      6.037e+09
        SOLVER ELAPSED TIME:  491ms

               CONVERGENCE CHECKS FOR EQUILIBRIUM ITERATION     3


 AVERAGE FORCE                      4.290E-03   TIME AVG. FORCE       2.855E-03
 LARGEST SCALED RESIDUAL FORCE     -1.204E-06   AT NODE        981   DOF  3
   INSTANCE: SPIRAL-1                                                                        
  CORRESPONDING RESIDUAL FORCE     -1.204E-06
 LARGEST INCREMENT OF DISP.        -1.031E-03   AT NODE        245   DOF  3
   INSTANCE: SPIRAL-1                                                                        
 LARGEST CORRECTION TO DISP.        7.165E-08   AT NODE        245   DOF  3
   INSTANCE: SPIRAL-1                                                                        
          THE FORCE     EQUILIBRIUM EQUATIONS HAVE CONVERGED

 ITERATION SUMMARY FOR THE INCREMENT:   3 TOTAL ITERATIONS, OF WHICH
   0 ARE SEVERE DISCONTINUITY ITERATIONS AND  3 ARE EQUILIBRIUM ITERATIONS.

 TIME INCREMENT COMPLETED  3.125E-02,  FRACTION OF STEP COMPLETED  6.250E-02
 STEP TIME COMPLETED       6.250E-02,  TOTAL TIME COMPLETED        6.250E-02


  INCREMENT     3 STARTS. ATTEMPT NUMBER  1, TIME INCREMENT  3.125E-02
 
	SYMMETRIC PURE THREAD-BASED DIRECT SPARSE SOLVER RUNNING ON
 	1 HOST x 1 MPI RANK PER HOST x 1 THREAD PER RANK
        NUMBER OF EQUATIONS:  90774
        NUMBER OF RHS:        1
        NUMBER OF FLOPS:      6.037e+09
        SOLVER ELAPSED TIME:  491ms

               CONVERGENCE CHECKS FOR EQUILIBRIUM ITERATION     1


 AVERAGE FORCE                      6.387E-03   TIME AVG. FORCE       4.032E-03
 LARGEST SCALED RESIDUAL FORCE     -2.258E-03   AT NODE      17311   DOF  2
   INSTANCE: SPIRAL-1                                                                        
  CORRESPONDING RESIDUAL FORCE     -2.258E-03
 LARGEST INCREMENT OF DISP.        -9.932E-04   AT NODE        245   DOF  3
   INSTANCE: SPIRAL-1                                                                        
 LARGEST CORRECTION TO DISP.        3.824E-05   AT NODE        248   DOF  3
   INSTANCE: SPIRAL-1                                                                        
          FORCE     EQUILIBRIUM NOT ACHIEVED WITHIN TOLERANCE.
 
	SYMMETRIC PURE THREAD-BASED DIRECT SPARSE SOLVER RUNNING ON
 	1 HOST x 1 MPI RANK PER HOST x 1 THREAD PER RANK
        NUMBER OF EQUATIONS:  90774
        NUMBER OF RHS:        1
        NUMBER OF FLOPS:      6.037e+09
        SOLVER ELAPSED TIME:  493ms

               CONVERGENCE CHECKS FOR EQUILIBRIUM ITERATION     2


 AVERAGE FORCE                      6.366E-03   TIME AVG. FORCE       4.025E-03
 LARGEST SCALED RESIDUAL FORCE     -1.583E-05   AT NODE      17271   DOF  1
   INSTANCE: SPIRAL-1                                                                        
  CORRESPONDING RESIDUAL FORCE     -1.583E-05
 LARGEST INCREMENT OF DISP.        -9.927E-04   AT NODE        245   DOF  3
   INSTANCE: SPIRAL-1                                                                        
 LARGEST CORRECTION TO DISP.        4.898E-07   AT NODE        245   DOF  3
   INSTANCE: SPIRAL-1                                                                        
          THE FORCE     EQUILIBRIUM EQUATIONS HAVE CONVERGED
          TIME INCREMENT MAY NOW INCREASE TO    4.688E-02

 ITERATION SUMMARY FOR THE INCREMENT:   2 TOTAL ITERATIONS, OF WHICH
   0 ARE SEVERE DISCONTINUITY ITERATIONS AND  2 ARE EQUILIBRIUM ITERATIONS.

 TIME INCREMENT COMPLETED  3.125E-02,  FRACTION OF STEP COMPLETED  9.375E-02
 STEP TIME COMPLETED       9.375E-02,  TOTAL TIME COMPLETED        9.375E-02


  INCREMENT     4 STARTS. ATTEMPT NUMBER  1, TIME INCREMENT  4.688E-02
 
	SYMMETRIC PURE THREAD-BASED DIRECT SPARSE SOLVER RUNNING ON
 	1 HOST x 1 MPI RANK PER HOST x 1 THREAD PER RANK
        NUMBER OF EQUATIONS:  90774
        NUMBER OF RHS:        1
        NUMBER OF FLOPS:      6.037e+09
        SOLVER ELAPSED TIME:  493ms

               CONVERGENCE CHECKS FOR EQUILIBRIUM ITERATION     1


 AVERAGE FORCE                      9.483E-03   TIME AVG. FORCE       5.390E-03
 LARGEST SCALED RESIDUAL FORCE      6.171E-03   AT NODE      17271   DOF  1
   INSTANCE: SPIRAL-1                                                                        
  CORRESPONDING RESIDUAL FORCE      6.171E-03
 LARGEST INCREMENT OF DISP.        -1.425E-03   AT NODE        245   DOF  3
   INSTANCE: SPIRAL-1                                                                        
 LARGEST CORRECTION TO DISP.        6.540E-05   AT NODE        248   DOF  3
   INSTANCE: SPIRAL-1                                                                        
          FORCE     EQUILIBRIUM NOT ACHIEVED WITHIN TOLERANCE.
 
	SYMMETRIC PURE THREAD-BASED DIRECT SPARSE SOLVER RUNNING ON
 	1 HOST x 1 MPI RANK PER HOST x 1 THREAD PER RANK
        NUMBER OF EQUATIONS:  90774
        NUMBER OF RHS:        1
        NUMBER OF FLOPS:      6.037e+09
        SOLVER ELAPSED TIME:  492ms

               CONVERGENCE CHECKS FOR EQUILIBRIUM ITERATION     2


 AVERAGE FORCE                      9.387E-03   TIME AVG. FORCE       5.366E-03
 LARGEST SCALED RESIDUAL FORCE     -6.653E-05   AT NODE       8767   DOF  1
   INSTANCE: SPIRAL-1                                                                        
  CORRESPONDING RESIDUAL FORCE     -6.653E-05
 LARGEST INCREMENT OF DISP.        -1.424E-03   AT NODE        245   DOF  3
   INSTANCE: SPIRAL-1                                                                        
 LARGEST CORRECTION TO DISP.        1.063E-06   AT NODE        245   DOF  3
   INSTANCE: SPIRAL-1                                                                        
          FORCE     EQUILIBRIUM NOT ACHIEVED WITHIN TOLERANCE.
 
	SYMMETRIC PURE THREAD-BASED DIRECT SPARSE SOLVER RUNNING ON
 	1 HOST x 1 MPI RANK PER HOST x 1 THREAD PER RANK
        NUMBER OF EQUATIONS:  90774
        NUMBER OF RHS:        1
        NUMBER OF FLOPS:      6.037e+09
        SOLVER ELAPSED TIME:  478ms

               CONVERGENCE CHECKS FOR EQUILIBRIUM ITERATION     3


 AVERAGE FORCE                      9.387E-03   TIME AVG. FORCE       5.366E-03
 LARGEST SCALED RESIDUAL FORCE     -1.424E-05   AT NODE        981   DOF  3
   INSTANCE: SPIRAL-1                                                                        
  CORRESPONDING RESIDUAL FORCE     -1.424E-05
 LARGEST INCREMENT OF DISP.        -1.423E-03   AT NODE        245   DOF  3
   INSTANCE: SPIRAL-1                                                                        
 LARGEST CORRECTION TO DISP.        5.292E-07   AT NODE        245   DOF  3
   INSTANCE: SPIRAL-1                                                                        
          THE FORCE     EQUILIBRIUM EQUATIONS HAVE CONVERGED
          TIME INCREMENT MAY NOW INCREASE TO    7.031E-02

 ITERATION SUMMARY FOR THE INCREMENT:   3 TOTAL ITERATIONS, OF WHICH
   0 ARE SEVERE DISCONTINUITY ITERATIONS AND  3 ARE EQUILIBRIUM ITERATIONS.

 TIME INCREMENT COMPLETED  4.688E-02,  FRACTION OF STEP COMPLETED  0.141    
 STEP TIME COMPLETED       0.141    ,  TOTAL TIME COMPLETED        0.141    


  INCREMENT     5 STARTS. ATTEMPT NUMBER  1, TIME INCREMENT  7.031E-02
 
	SYMMETRIC PURE THREAD-BASED DIRECT SPARSE SOLVER RUNNING ON
 	1 HOST x 1 MPI RANK PER HOST x 1 THREAD PER RANK
        NUMBER OF EQUATIONS:  90774
        NUMBER OF RHS:        1
        NUMBER OF FLOPS:      6.037e+09
        SOLVER ELAPSED TIME:  498ms

               CONVERGENCE CHECKS FOR EQUILIBRIUM ITERATION     1


 AVERAGE FORCE                      1.408E-02   TIME AVG. FORCE       7.108E-03
 LARGEST SCALED RESIDUAL FORCE      2.593E-02   AT NODE      17271   DOF  1
   INSTANCE: SPIRAL-1                                                                        
  CORRESPONDING RESIDUAL FORCE      2.593E-02
 LARGEST INCREMENT OF DISP.        -2.008E-03   AT NODE        245   DOF  3
   INSTANCE: SPIRAL-1                                                                        
 LARGEST CORRECTION TO DISP.        1.292E-04   AT NODE        248   DOF  3
   INSTANCE: SPIRAL-1                                                                        
          FORCE     EQUILIBRIUM NOT ACHIEVED WITHIN TOLERANCE.
 
	SYMMETRIC PURE THREAD-BASED DIRECT SPARSE SOLVER RUNNING ON
 	1 HOST x 1 MPI RANK PER HOST x 1 THREAD PER RANK
        NUMBER OF EQUATIONS:  90774
        NUMBER OF RHS:        1
        NUMBER OF FLOPS:      6.037e+09
        SOLVER ELAPSED TIME:  493ms

               CONVERGENCE CHECKS FOR EQUILIBRIUM ITERATION     2


 AVERAGE FORCE                      1.358E-02   TIME AVG. FORCE       7.009E-03
 LARGEST SCALED RESIDUAL FORCE     -3.842E-04   AT NODE       8767   DOF  1
   INSTANCE: SPIRAL-1                                                                        
  CORRESPONDING RESIDUAL FORCE     -3.842E-04
 LARGEST INCREMENT OF DISP.        -2.006E-03   AT NODE        245   DOF  3
   INSTANCE: SPIRAL-1                                                                        
 LARGEST CORRECTION TO DISP.       -2.101E-06   AT NODE        255   DOF  3
   INSTANCE: SPIRAL-1                                                                        
          FORCE     EQUILIBRIUM NOT ACHIEVED WITHIN TOLERANCE.
 
	SYMMETRIC PURE THREAD-BASED DIRECT SPARSE SOLVER RUNNING ON
 	1 HOST x 1 MPI RANK PER HOST x 1 THREAD PER RANK
        NUMBER OF EQUATIONS:  90774
        NUMBER OF RHS:        1
        NUMBER OF FLOPS:      6.037e+09
        SOLVER ELAPSED TIME:  483ms

               CONVERGENCE CHECKS FOR EQUILIBRIUM ITERATION     3


 AVERAGE FORCE                      1.358E-02   TIME AVG. FORCE       7.008E-03
 LARGEST SCALED RESIDUAL FORCE     -1.127E-04   AT NODE        981   DOF  3
   INSTANCE: SPIRAL-1                                                                        
  CORRESPONDING RESIDUAL FORCE     -1.127E-04
 LARGEST INCREMENT OF DISP.        -2.004E-03   AT NODE        245   DOF  3
   INSTANCE: SPIRAL-1                                                                        
 LARGEST CORRECTION TO DISP.        2.798E-06   AT NODE        245   DOF  3
   INSTANCE: SPIRAL-1                                                                        
          FORCE     EQUILIBRIUM NOT ACHIEVED WITHIN TOLERANCE.
 
	SYMMETRIC PURE THREAD-BASED DIRECT SPARSE SOLVER RUNNING ON
 	1 HOST x 1 MPI RANK PER HOST x 1 THREAD PER RANK
        NUMBER OF EQUATIONS:  90774
        NUMBER OF RHS:        1
        NUMBER OF FLOPS:      6.037e+09
        SOLVER ELAPSED TIME:  483ms

               CONVERGENCE CHECKS FOR EQUILIBRIUM ITERATION     4


 AVERAGE FORCE                      1.358E-02   TIME AVG. FORCE       7.009E-03
 LARGEST SCALED RESIDUAL FORCE     -3.876E-06   AT NODE        981   DOF  1
   INSTANCE: SPIRAL-1                                                                        
  CORRESPONDING RESIDUAL FORCE     -3.876E-06
 LARGEST INCREMENT OF DISP.        -2.004E-03   AT NODE        245   DOF  3
   INSTANCE: SPIRAL-1                                                                        
 LARGEST CORRECTION TO DISP.       -2.134E-08   AT NODE        255   DOF  3
   INSTANCE: SPIRAL-1                                                                        
          THE FORCE     EQUILIBRIUM EQUATIONS HAVE CONVERGED
          TIME INCREMENT MAY NOW INCREASE TO    0.105    

 ITERATION SUMMARY FOR THE INCREMENT:   4 TOTAL ITERATIONS, OF WHICH
   0 ARE SEVERE DISCONTINUITY ITERATIONS AND  4 ARE EQUILIBRIUM ITERATIONS.

 TIME INCREMENT COMPLETED  7.031E-02,  FRACTION OF STEP COMPLETED  0.211    
 STEP TIME COMPLETED       0.211    ,  TOTAL TIME COMPLETED        0.211    


  INCREMENT     6 STARTS. ATTEMPT NUMBER  1, TIME INCREMENT  0.105    
 
	SYMMETRIC PURE THREAD-BASED DIRECT SPARSE SOLVER RUNNING ON
 	1 HOST x 1 MPI RANK PER HOST x 1 THREAD PER RANK
        NUMBER OF EQUATIONS:  90774
        NUMBER OF RHS:        1
        NUMBER OF FLOPS:      6.037e+09
        SOLVER ELAPSED TIME:  483ms

               CONVERGENCE CHECKS FOR EQUILIBRIUM ITERATION     1


 AVERAGE FORCE                      2.136E-02   TIME AVG. FORCE       9.400E-03
 LARGEST SCALED RESIDUAL FORCE      0.103       AT NODE      17271   DOF  1
   INSTANCE: SPIRAL-1                                                                        
  CORRESPONDING RESIDUAL FORCE      0.103    
 LARGEST INCREMENT OF DISP.        -2.765E-03   AT NODE        245   DOF  3
   INSTANCE: SPIRAL-1                                                                        
 LARGEST CORRECTION TO DISP.        2.447E-04   AT NODE        248   DOF  3
   INSTANCE: SPIRAL-1                                                                        
          FORCE     EQUILIBRIUM NOT ACHIEVED WITHIN TOLERANCE.
 
	SYMMETRIC PURE THREAD-BASED DIRECT SPARSE SOLVER RUNNING ON
 	1 HOST x 1 MPI RANK PER HOST x 1 THREAD PER RANK
        NUMBER OF EQUATIONS:  90774
        NUMBER OF RHS:        1
        NUMBER OF FLOPS:      6.037e+09
        SOLVER ELAPSED TIME:  485ms

               CONVERGENCE CHECKS FOR EQUILIBRIUM ITERATION     2


 AVERAGE FORCE                      1.961E-02   TIME AVG. FORCE       9.110E-03
 LARGEST SCALED RESIDUAL FORCE     -2.072E-03   AT NODE       8767   DOF  1
   INSTANCE: SPIRAL-1                                                                        
  CORRESPONDING RESIDUAL FORCE     -2.072E-03
 LARGEST INCREMENT OF DISP.        -2.761E-03   AT NODE        245   DOF  3
   INSTANCE: SPIRAL-1                                                                        
 LARGEST CORRECTION TO DISP.       -4.278E-06   AT NODE        255   DOF  3
   INSTANCE: SPIRAL-1                                                                        
          FORCE     EQUILIBRIUM NOT ACHIEVED WITHIN TOLERANCE.
 
	SYMMETRIC PURE THREAD-BASED DIRECT SPARSE SOLVER RUNNING ON
 	1 HOST x 1 MPI RANK PER HOST x 1 THREAD PER RANK
        NUMBER OF EQUATIONS:  90774
        NUMBER OF RHS:        1
        NUMBER OF FLOPS:      6.037e+09
        SOLVER ELAPSED TIME:  484ms

               CONVERGENCE CHECKS FOR EQUILIBRIUM ITERATION     3


 AVERAGE FORCE                      1.959E-02   TIME AVG. FORCE       9.106E-03
 LARGEST SCALED RESIDUAL FORCE     -5.883E-04   AT NODE        981   DOF  3
   INSTANCE: SPIRAL-1                                                                        
  CORRESPONDING RESIDUAL FORCE     -5.883E-04
 LARGEST INCREMENT OF DISP.        -2.751E-03   AT NODE        245   DOF  3
   INSTANCE: SPIRAL-1                                                                        
 LARGEST CORRECTION TO DISP.        9.874E-06   AT NODE        245   DOF  3
   INSTANCE: SPIRAL-1                                                                        
          FORCE     EQUILIBRIUM NOT ACHIEVED WITHIN TOLERANCE.
 
	SYMMETRIC PURE THREAD-BASED DIRECT SPARSE SOLVER RUNNING ON
 	1 HOST x 1 MPI RANK PER HOST x 1 THREAD PER RANK
        NUMBER OF EQUATIONS:  90774
        NUMBER OF RHS:        1
        NUMBER OF FLOPS:      6.037e+09
        SOLVER ELAPSED TIME:  492ms

               CONVERGENCE CHECKS FOR EQUILIBRIUM ITERATION     4


 AVERAGE FORCE                      1.960E-02   TIME AVG. FORCE       9.107E-03
 LARGEST SCALED RESIDUAL FORCE     -2.726E-05   AT NODE        981   DOF  1
   INSTANCE: SPIRAL-1                                                                        
  CORRESPONDING RESIDUAL FORCE     -2.726E-05
 LARGEST INCREMENT OF DISP.        -2.751E-03   AT NODE        245   DOF  3
   INSTANCE: SPIRAL-1                                                                        
 LARGEST CORRECTION TO DISP.       -1.387E-07   AT NODE        255   DOF  3
   INSTANCE: SPIRAL-1                                                                        
          THE FORCE     EQUILIBRIUM EQUATIONS HAVE CONVERGED
          TIME INCREMENT MAY NOW INCREASE TO    0.158    

 ITERATION SUMMARY FOR THE INCREMENT:   4 TOTAL ITERATIONS, OF WHICH
   0 ARE SEVERE DISCONTINUITY ITERATIONS AND  4 ARE EQUILIBRIUM ITERATIONS.

 TIME INCREMENT COMPLETED  0.105    ,  FRACTION OF STEP COMPLETED  0.316    
 STEP TIME COMPLETED       0.316    ,  TOTAL TIME COMPLETED        0.316    


  INCREMENT     7 STARTS. ATTEMPT NUMBER  1, TIME INCREMENT  0.158    
 
	SYMMETRIC PURE THREAD-BASED DIRECT SPARSE SOLVER RUNNING ON
 	1 HOST x 1 MPI RANK PER HOST x 1 THREAD PER RANK
        NUMBER OF EQUATIONS:  90774
        NUMBER OF RHS:        1
        NUMBER OF FLOPS:      6.037e+09
        SOLVER ELAPSED TIME:  484ms

               CONVERGENCE CHECKS FOR EQUILIBRIUM ITERATION     1


 AVERAGE FORCE                      3.418E-02   TIME AVG. FORCE       1.269E-02
 LARGEST SCALED RESIDUAL FORCE      0.385       AT NODE      17271   DOF  1
   INSTANCE: SPIRAL-1                                                                        
  CORRESPONDING RESIDUAL FORCE      0.385    
 LARGEST INCREMENT OF DISP.        -3.698E-03   AT NODE        245   DOF  3
   INSTANCE: SPIRAL-1                                                                        
 LARGEST CORRECTION TO DISP.        4.362E-04   AT NODE        248   DOF  3
   INSTANCE: SPIRAL-1                                                                        
          FORCE     EQUILIBRIUM NOT ACHIEVED WITHIN TOLERANCE.
 
	SYMMETRIC PURE THREAD-BASED DIRECT SPARSE SOLVER RUNNING ON
 	1 HOST x 1 MPI RANK PER HOST x 1 THREAD PER RANK
        NUMBER OF EQUATIONS:  90774
        NUMBER OF RHS:        1
        NUMBER OF FLOPS:      6.037e+09
        SOLVER ELAPSED TIME:  493ms
 

 ***WARNING: THE SYSTEM MATRIX HAS 2 NEGATIVE EIGENVALUES.
             EXPLANATIONS ARE SUGGESTED AFTER THE FIRST OCCURRENCE OF THIS MESSAGE.

               CONVERGENCE CHECKS FOR EQUILIBRIUM ITERATION     2


 AVERAGE FORCE                       5.05       TIME AVG. FORCE       0.730    
 LARGEST SCALED RESIDUAL FORCE       148.       AT NODE      11029   DOF  3
   INSTANCE: SPIRAL-1                                                                        
  CORRESPONDING RESIDUAL FORCE       148.    
 LARGEST INCREMENT OF DISP.        -1.066E-02   AT NODE        245   DOF  3
   INSTANCE: SPIRAL-1                                                                        
 LARGEST CORRECTION TO DISP.       -6.962E-03   AT NODE        245   DOF  3
   INSTANCE: SPIRAL-1                                                                        
          FORCE     EQUILIBRIUM NOT ACHIEVED WITHIN TOLERANCE.
 
	SYMMETRIC PURE THREAD-BASED DIRECT SPARSE SOLVER RUNNING ON
 	1 HOST x 1 MPI RANK PER HOST x 1 THREAD PER RANK
        NUMBER OF EQUATIONS:  90774
        NUMBER OF RHS:        1
        NUMBER OF FLOPS:      6.037e+09
        SOLVER ELAPSED TIME:  497ms
 

 ***WARNING: THE SYSTEM MATRIX HAS 1 NEGATIVE EIGENVALUES.
             EXPLANATIONS ARE SUGGESTED AFTER THE FIRST OCCURRENCE OF THIS MESSAGE.

               CONVERGENCE CHECKS FOR EQUILIBRIUM ITERATION     3


 AVERAGE FORCE                      0.162       TIME AVG. FORCE       3.101E-02
 LARGEST SCALED RESIDUAL FORCE      -4.34       AT NODE      11029   DOF  3
   INSTANCE: SPIRAL-1                                                                        
  CORRESPONDING RESIDUAL FORCE      -4.34    
 LARGEST INCREMENT OF DISP.        -1.044E-02   AT NODE        245   DOF  3
   INSTANCE: SPIRAL-1                                                                        
 LARGEST CORRECTION TO DISP.       -4.864E-04   AT NODE        245   DOF  1
   INSTANCE: SPIRAL-1                                                                        
          FORCE     EQUILIBRIUM NOT ACHIEVED WITHIN TOLERANCE.
 
	SYMMETRIC PURE THREAD-BASED DIRECT SPARSE SOLVER RUNNING ON
 	1 HOST x 1 MPI RANK PER HOST x 1 THREAD PER RANK
        NUMBER OF EQUATIONS:  90774
        NUMBER OF RHS:        1
        NUMBER OF FLOPS:      6.037e+09
        SOLVER ELAPSED TIME:  488ms
 

 ***WARNING: THE SYSTEM MATRIX HAS 5 NEGATIVE EIGENVALUES.
             EXPLANATIONS ARE SUGGESTED AFTER THE FIRST OCCURRENCE OF THIS MESSAGE.

               CONVERGENCE CHECKS FOR EQUILIBRIUM ITERATION     4


 AVERAGE FORCE                      6.387E-02   TIME AVG. FORCE       1.693E-02
 LARGEST SCALED RESIDUAL FORCE      -84.4       AT NODE       4981   DOF  3
   INSTANCE: SPIRAL-1                                                                        
  CORRESPONDING RESIDUAL FORCE      -84.4    
 LARGEST INCREMENT OF DISP.        -1.048E-02   AT NODE        245   DOF  3
   INSTANCE: SPIRAL-1                                                                        
 LARGEST CORRECTION TO DISP.        3.688E-04   AT NODE         41   DOF  3
   INSTANCE: SPIRAL-1                                                                        
          FORCE     EQUILIBRIUM NOT ACHIEVED WITHIN TOLERANCE.
 
	SYMMETRIC PURE THREAD-BASED DIRECT SPARSE SOLVER RUNNING ON
 	1 HOST x 1 MPI RANK PER HOST x 1 THREAD PER RANK
        NUMBER OF EQUATIONS:  90774
        NUMBER OF RHS:        1
        NUMBER OF FLOPS:      6.037e+09
        SOLVER ELAPSED TIME:  486ms
 

 ***WARNING: THE SYSTEM MATRIX HAS 4 NEGATIVE EIGENVALUES.
             EXPLANATIONS ARE SUGGESTED AFTER THE FIRST OCCURRENCE OF THIS MESSAGE.
   ELEMENT SPIRAL-1.216 IS DISTORTING EXCESSIVELY.
   ELEMENT SPIRAL-1.227 IS DISTORTING EXCESSIVELY.
   ELEMENT SPIRAL-1.228 IS DISTORTING EXCESSIVELY.

 ***WARNING: EXCESSIVE DISTORTION AT A TOTAL OF 3 INTEGRATION POINTS IN SOLID 
             (CONTINUUM) ELEMENTS
 

[...]
 	1 HOST x 1 MPI RANK PER HOST x 1 THREAD PER RANK
        NUMBER OF EQUATIONS:  90774
        NUMBER OF RHS:        1
        NUMBER OF FLOPS:      6.037e+09
        SOLVER ELAPSED TIME:  479ms

               CONVERGENCE CHECKS FOR EQUILIBRIUM ITERATION     1


 AVERAGE FORCE                      4.495E-02   TIME AVG. FORCE       1.941E-02
 LARGEST SCALED RESIDUAL FORCE      0.157       AT NODE      17271   DOF  1
   INSTANCE: SPIRAL-1                                                                        
  CORRESPONDING RESIDUAL FORCE      0.157    
 LARGEST INCREMENT OF DISP.        -2.459E-03   AT NODE        245   DOF  3
   INSTANCE: SPIRAL-1                                                                        
 LARGEST CORRECTION TO DISP.        2.240E-04   AT NODE        248   DOF  3
   INSTANCE: SPIRAL-1                                                                        
          FORCE     EQUILIBRIUM NOT ACHIEVED WITHIN TOLERANCE.
 
	SYMMETRIC PURE THREAD-BASED DIRECT SPARSE SOLVER RUNNING ON
 	1 HOST x 1 MPI RANK PER HOST x 1 THREAD PER RANK
        NUMBER OF EQUATIONS:  90774
        NUMBER OF RHS:        1
        NUMBER OF FLOPS:      6.037e+09
        SOLVER ELAPSED TIME:  505ms
 

 ***WARNING: THE SYSTEM MATRIX HAS 2 NEGATIVE EIGENVALUES.
             EXPLANATIONS ARE SUGGESTED AFTER THE FIRST OCCURRENCE OF THIS MESSAGE.

               CONVERGENCE CHECKS FOR EQUILIBRIUM ITERATION     2


 AVERAGE FORCE                      4.334E-02   TIME AVG. FORCE       1.927E-02
 LARGEST SCALED RESIDUAL FORCE     -3.687E-03   AT NODE      17311   DOF  1
   INSTANCE: SPIRAL-1                                                                        
  CORRESPONDING RESIDUAL FORCE     -3.687E-03
 LARGEST INCREMENT OF DISP.        -2.490E-03   AT NODE        245   DOF  3
   INSTANCE: SPIRAL-1                                                                        
 LARGEST CORRECTION TO DISP.       -3.064E-05   AT NODE        245   DOF  3
   INSTANCE: SPIRAL-1                                                                        
          FORCE     EQUILIBRIUM NOT ACHIEVED WITHIN TOLERANCE.
 
	SYMMETRIC PURE THREAD-BASED DIRECT SPARSE SOLVER RUNNING ON
 	1 HOST x 1 MPI RANK PER HOST x 1 THREAD PER RANK
        NUMBER OF EQUATIONS:  90774
        NUMBER OF RHS:        1
        NUMBER OF FLOPS:      6.037e+09
        SOLVER ELAPSED TIME:  491ms

               CONVERGENCE CHECKS FOR EQUILIBRIUM ITERATION     3


 AVERAGE FORCE                      4.325E-02   TIME AVG. FORCE       1.926E-02
 LARGEST SCALED RESIDUAL FORCE     -7.125E-03   AT NODE       9541   DOF  3
   INSTANCE: SPIRAL-1                                                                        
  CORRESPONDING RESIDUAL FORCE     -7.125E-03
 LARGEST INCREMENT OF DISP.        -2.444E-03   AT NODE        245   DOF  3
   INSTANCE: SPIRAL-1                                                                        
 LARGEST CORRECTION TO DISP.        4.624E-05   AT NODE        245   DOF  3
   INSTANCE: SPIRAL-1                                                                        
          FORCE     EQUILIBRIUM NOT ACHIEVED WITHIN TOLERANCE.
 
	SYMMETRIC PURE THREAD-BASED DIRECT SPARSE SOLVER RUNNING ON
 	1 HOST x 1 MPI RANK PER HOST x 1 THREAD PER RANK
        NUMBER OF EQUATIONS:  90774
        NUMBER OF RHS:        1
        NUMBER OF FLOPS:      6.037e+09
        SOLVER ELAPSED TIME:  498ms

               CONVERGENCE CHECKS FOR EQUILIBRIUM ITERATION     4


 AVERAGE FORCE                      4.322E-02   TIME AVG. FORCE       1.926E-02
 LARGEST SCALED RESIDUAL FORCE     -5.806E-04   AT NODE        981   DOF  3
   INSTANCE: SPIRAL-1                                                                        
  CORRESPONDING RESIDUAL FORCE     -5.806E-04
 LARGEST INCREMENT OF DISP.        -2.436E-03   AT NODE        245   DOF  3
   INSTANCE: SPIRAL-1                                                                        
 LARGEST CORRECTION TO DISP.        7.384E-06   AT NODE        245   DOF  3
   INSTANCE: SPIRAL-1                                                                        
          FORCE     EQUILIBRIUM NOT ACHIEVED WITHIN TOLERANCE.
 
	SYMMETRIC PURE THREAD-BASED DIRECT SPARSE SOLVER RUNNING ON
 	1 HOST x 1 MPI RANK PER HOST x 1 THREAD PER RANK
        NUMBER OF EQUATIONS:  90774
        NUMBER OF RHS:        1
        NUMBER OF FLOPS:      6.037e+09
        SOLVER ELAPSED TIME:  481ms

               CONVERGENCE CHECKS FOR EQUILIBRIUM ITERATION     5


 AVERAGE FORCE                      4.322E-02   TIME AVG. FORCE       1.926E-02
 LARGEST SCALED RESIDUAL FORCE     -2.887E-04   AT NODE        981   DOF  3
   INSTANCE: SPIRAL-1                                                                        
  CORRESPONDING RESIDUAL FORCE     -2.887E-04
 LARGEST INCREMENT OF DISP.        -2.432E-03   AT NODE        245   DOF  3
   INSTANCE: SPIRAL-1                                                                        
 LARGEST CORRECTION TO DISP.        3.902E-06   AT NODE        245   DOF  3
   INSTANCE: SPIRAL-1                                                                        
          FORCE     EQUILIBRIUM NOT ACHIEVED WITHIN TOLERANCE.
 
	SYMMETRIC PURE THREAD-BASED DIRECT SPARSE SOLVER RUNNING ON
 	1 HOST x 1 MPI RANK PER HOST x 1 THREAD PER RANK
        NUMBER OF EQUATIONS:  90774
        NUMBER OF RHS:        1
        NUMBER OF FLOPS:      6.037e+09
        SOLVER ELAPSED TIME:  475ms

               CONVERGENCE CHECKS FOR EQUILIBRIUM ITERATION     6


 AVERAGE FORCE                      4.322E-02   TIME AVG. FORCE       1.926E-02
 LARGEST SCALED RESIDUAL FORCE     -1.254E-05   AT NODE        981   DOF  1
   INSTANCE: SPIRAL-1                                                                        
  CORRESPONDING RESIDUAL FORCE     -1.254E-05
 LARGEST INCREMENT OF DISP.        -2.432E-03   AT NODE        245   DOF  3
   INSTANCE: SPIRAL-1                                                                        
 LARGEST CORRECTION TO DISP.        1.195E-07   AT NODE        245   DOF  3
   INSTANCE: SPIRAL-1                                                                        
          THE FORCE     EQUILIBRIUM EQUATIONS HAVE CONVERGED

 ITERATION SUMMARY FOR THE INCREMENT:   6 TOTAL ITERATIONS, OF WHICH
   0 ARE SEVERE DISCONTINUITY ITERATIONS AND  6 ARE EQUILIBRIUM ITERATIONS.

 TIME INCREMENT COMPLETED  0.133    ,  FRACTION OF STEP COMPLETED  0.771    
 STEP TIME COMPLETED       0.771    ,  TOTAL TIME COMPLETED        0.771    


  INCREMENT    12 STARTS. ATTEMPT NUMBER  1, TIME INCREMENT  0.133    
 
	SYMMETRIC PURE THREAD-BASED DIRECT SPARSE SOLVER RUNNING ON
 	1 HOST x 1 MPI RANK PER HOST x 1 THREAD PER RANK
        NUMBER OF EQUATIONS:  90774
        NUMBER OF RHS:        1
        NUMBER OF FLOPS:      6.037e+09
        SOLVER ELAPSED TIME:  473ms

               CONVERGENCE CHECKS FOR EQUILIBRIUM ITERATION     1


 AVERAGE FORCE                      5.072E-02   TIME AVG. FORCE       2.188E-02
 LARGEST SCALED RESIDUAL FORCE      0.133       AT NODE      17271   DOF  1
   INSTANCE: SPIRAL-1                                                                        
  CORRESPONDING RESIDUAL FORCE      0.133    
 LARGEST INCREMENT OF DISP.         2.251E-03   AT NODE        255   DOF  3
   INSTANCE: SPIRAL-1                                                                        
 LARGEST CORRECTION TO DISP.       -2.087E-04   AT NODE        166   DOF  2
   INSTANCE: SPIRAL-1                                                                        
          FORCE     EQUILIBRIUM NOT ACHIEVED WITHIN TOLERANCE.
 
	SYMMETRIC PURE THREAD-BASED DIRECT SPARSE SOLVER RUNNING ON
 	1 HOST x 1 MPI RANK PER HOST x 1 THREAD PER RANK
        NUMBER OF EQUATIONS:  90774
        NUMBER OF RHS:        1
        NUMBER OF FLOPS:      6.037e+09
        SOLVER ELAPSED TIME:  472ms
 

 ***WARNING: THE SYSTEM MATRIX HAS 2 NEGATIVE EIGENVALUES.
             EXPLANATIONS ARE SUGGESTED AFTER THE FIRST OCCURRENCE OF THIS MESSAGE.

               CONVERGENCE CHECKS FOR EQUILIBRIUM ITERATION     2


 AVERAGE FORCE                      4.953E-02   TIME AVG. FORCE       2.178E-02
 LARGEST SCALED RESIDUAL FORCE      2.999E-03   AT NODE        982   DOF  3
   INSTANCE: SPIRAL-1                                                                        
  CORRESPONDING RESIDUAL FORCE      2.999E-03
 LARGEST INCREMENT OF DISP.        -2.275E-03   AT NODE        245   DOF  3
   INSTANCE: SPIRAL-1                                                                        
 LARGEST CORRECTION TO DISP.       -2.544E-05   AT NODE        245   DOF  3
   INSTANCE: SPIRAL-1                                                                        
          FORCE     EQUILIBRIUM NOT ACHIEVED WITHIN TOLERANCE.
 
	SYMMETRIC PURE THREAD-BASED DIRECT SPARSE SOLVER RUNNING ON
 	1 HOST x 1 MPI RANK PER HOST x 1 THREAD PER RANK
        NUMBER OF EQUATIONS:  90774
        NUMBER OF RHS:        1
        NUMBER OF FLOPS:      6.037e+09
        SOLVER ELAPSED TIME:  483ms

               CONVERGENCE CHECKS FOR EQUILIBRIUM ITERATION     3


 AVERAGE FORCE                      4.943E-02   TIME AVG. FORCE       2.177E-02
 LARGEST SCALED RESIDUAL FORCE     -6.151E-03   AT NODE       9541   DOF  3
   INSTANCE: SPIRAL-1                                                                        
  CORRESPONDING RESIDUAL FORCE     -6.151E-03
 LARGEST INCREMENT OF DISP.        -2.232E-03   AT NODE        245   DOF  3
   INSTANCE: SPIRAL-1                                                                        
 LARGEST CORRECTION TO DISP.        4.239E-05   AT NODE        245   DOF  3
   INSTANCE: SPIRAL-1                                                                        
          FORCE     EQUILIBRIUM NOT ACHIEVED WITHIN TOLERANCE.
 
	SYMMETRIC PURE THREAD-BASED DIRECT SPARSE SOLVER RUNNING ON
 	1 HOST x 1 MPI RANK PER HOST x 1 THREAD PER RANK
        NUMBER OF EQUATIONS:  90774
        NUMBER OF RHS:        1
        NUMBER OF FLOPS:      6.037e+09
        SOLVER ELAPSED TIME:  482ms

               CONVERGENCE CHECKS FOR EQUILIBRIUM ITERATION     4


 AVERAGE FORCE                      4.941E-02   TIME AVG. FORCE       2.177E-02
 LARGEST SCALED RESIDUAL FORCE     -4.119E-04   AT NODE        981   DOF  3
   INSTANCE: SPIRAL-1                                                                        
  CORRESPONDING RESIDUAL FORCE     -4.119E-04
 LARGEST INCREMENT OF DISP.         2.227E-03   AT NODE        255   DOF  3
   INSTANCE: SPIRAL-1                                                                        
 LARGEST CORRECTION TO DISP.        5.337E-06   AT NODE        245   DOF  3
   INSTANCE: SPIRAL-1                                                                        
          FORCE     EQUILIBRIUM NOT ACHIEVED WITHIN TOLERANCE.
 
	SYMMETRIC PURE THREAD-BASED DIRECT SPARSE SOLVER RUNNING ON
 	1 HOST x 1 MPI RANK PER HOST x 1 THREAD PER RANK
        NUMBER OF EQUATIONS:  90774
        NUMBER OF RHS:        1
        NUMBER OF FLOPS:      6.037e+09
        SOLVER ELAPSED TIME:  482ms

               CONVERGENCE CHECKS FOR EQUILIBRIUM ITERATION     5


 AVERAGE FORCE                      4.941E-02   TIME AVG. FORCE       2.177E-02
 LARGEST SCALED RESIDUAL FORCE     -1.811E-04   AT NODE        981   DOF  3
   INSTANCE: SPIRAL-1                                                                        
  CORRESPONDING RESIDUAL FORCE     -1.811E-04
 LARGEST INCREMENT OF DISP.         2.226E-03   AT NODE        255   DOF  3
   INSTANCE: SPIRAL-1                                                                        
 LARGEST CORRECTION TO DISP.        2.501E-06   AT NODE        245   DOF  3
   INSTANCE: SPIRAL-1                                                                        
          FORCE     EQUILIBRIUM NOT ACHIEVED WITHIN TOLERANCE.
 
	SYMMETRIC PURE THREAD-BASED DIRECT SPARSE SOLVER RUNNING ON
 	1 HOST x 1 MPI RANK PER HOST x 1 THREAD PER RANK
        NUMBER OF EQUATIONS:  90774
        NUMBER OF RHS:        1
        NUMBER OF FLOPS:      6.037e+09
        SOLVER ELAPSED TIME:  478ms

               CONVERGENCE CHECKS FOR EQUILIBRIUM ITERATION     6


 AVERAGE FORCE                      4.941E-02   TIME AVG. FORCE       2.177E-02
 LARGEST SCALED RESIDUAL FORCE     -7.424E-06   AT NODE        981   DOF  1
   INSTANCE: SPIRAL-1                                                                        
  CORRESPONDING RESIDUAL FORCE     -7.424E-06
 LARGEST INCREMENT OF DISP.         2.226E-03   AT NODE        255   DOF  3
   INSTANCE: SPIRAL-1                                                                        
 LARGEST CORRECTION TO DISP.        7.014E-08   AT NODE        245   DOF  3
   INSTANCE: SPIRAL-1                                                                        
          THE FORCE     EQUILIBRIUM EQUATIONS HAVE CONVERGED

 ITERATION SUMMARY FOR THE INCREMENT:   6 TOTAL ITERATIONS, OF WHICH
   0 ARE SEVERE DISCONTINUITY ITERATIONS AND  6 ARE EQUILIBRIUM ITERATIONS.

 TIME INCREMENT COMPLETED  0.133    ,  FRACTION OF STEP COMPLETED  0.905    
 STEP TIME COMPLETED       0.905    ,  TOTAL TIME COMPLETED        0.905    


  INCREMENT    13 STARTS. ATTEMPT NUMBER  1, TIME INCREMENT  9.528E-02
 
	SYMMETRIC PURE THREAD-BASED DIRECT SPARSE SOLVER RUNNING ON
 	1 HOST x 1 MPI RANK PER HOST x 1 THREAD PER RANK
        NUMBER OF EQUATIONS:  90774
        NUMBER OF RHS:        1
        NUMBER OF FLOPS:      6.037e+09
        SOLVER ELAPSED TIME:  479ms

               CONVERGENCE CHECKS FOR EQUILIBRIUM ITERATION     1


 AVERAGE FORCE                      5.428E-02   TIME AVG. FORCE       2.427E-02
 LARGEST SCALED RESIDUAL FORCE      4.393E-02   AT NODE      17271   DOF  1
   INSTANCE: SPIRAL-1                                                                        
  CORRESPONDING RESIDUAL FORCE      4.393E-02
 LARGEST INCREMENT OF DISP.         1.496E-03   AT NODE        255   DOF  3
   INSTANCE: SPIRAL-1                                                                        
 LARGEST CORRECTION TO DISP.       -1.234E-04   AT NODE        166   DOF  2
   INSTANCE: SPIRAL-1                                                                        
          FORCE     EQUILIBRIUM NOT ACHIEVED WITHIN TOLERANCE.
 
	SYMMETRIC PURE THREAD-BASED DIRECT SPARSE SOLVER RUNNING ON
 	1 HOST x 1 MPI RANK PER HOST x 1 THREAD PER RANK
        NUMBER OF EQUATIONS:  90774
        NUMBER OF RHS:        1
        NUMBER OF FLOPS:      6.037e+09
        SOLVER ELAPSED TIME:  470ms

               CONVERGENCE CHECKS FOR EQUILIBRIUM ITERATION     2


 AVERAGE FORCE                      5.403E-02   TIME AVG. FORCE       2.425E-02
 LARGEST SCALED RESIDUAL FORCE     -4.807E-03   AT NODE      14394   DOF  3
   INSTANCE: SPIRAL-1                                                                        
  CORRESPONDING RESIDUAL FORCE     -4.807E-03
 LARGEST INCREMENT OF DISP.         1.459E-03   AT NODE        255   DOF  3
   INSTANCE: SPIRAL-1                                                                        
 LARGEST CORRECTION TO DISP.       -3.711E-05   AT NODE        255   DOF  3
   INSTANCE: SPIRAL-1                                                                        
          FORCE     EQUILIBRIUM NOT ACHIEVED WITHIN TOLERANCE.
 
	SYMMETRIC PURE THREAD-BASED DIRECT SPARSE SOLVER RUNNING ON
 	1 HOST x 1 MPI RANK PER HOST x 1 THREAD PER RANK
        NUMBER OF EQUATIONS:  90774
        NUMBER OF RHS:        1
        NUMBER OF FLOPS:      6.037e+09
        SOLVER ELAPSED TIME:  472ms

               CONVERGENCE CHECKS FOR EQUILIBRIUM ITERATION     3


 AVERAGE FORCE                      5.407E-02   TIME AVG. FORCE       2.425E-02
 LARGEST SCALED RESIDUAL FORCE     -9.627E-04   AT NODE      14394   DOF  3
   INSTANCE: SPIRAL-1                                                                        
  CORRESPONDING RESIDUAL FORCE     -9.627E-04
 LARGEST INCREMENT OF DISP.         1.475E-03   AT NODE        255   DOF  3
   INSTANCE: SPIRAL-1                                                                        
 LARGEST CORRECTION TO DISP.        1.649E-05   AT NODE        255   DOF  3
   INSTANCE: SPIRAL-1                                                                        
          FORCE     EQUILIBRIUM NOT ACHIEVED WITHIN TOLERANCE.
 
	SYMMETRIC PURE THREAD-BASED DIRECT SPARSE SOLVER RUNNING ON
 	1 HOST x 1 MPI RANK PER HOST x 1 THREAD PER RANK
        NUMBER OF EQUATIONS:  90774
        NUMBER OF RHS:        1
        NUMBER OF FLOPS:      6.037e+09
        SOLVER ELAPSED TIME:  470ms

               CONVERGENCE CHECKS FOR EQUILIBRIUM ITERATION     4


 AVERAGE FORCE                      5.410E-02   TIME AVG. FORCE       2.426E-02
 LARGEST SCALED RESIDUAL FORCE     -3.286E-04   AT NODE        839   DOF  3
   INSTANCE: SPIRAL-1                                                                        
  CORRESPONDING RESIDUAL FORCE     -3.286E-04
 LARGEST INCREMENT OF DISP.         1.481E-03   AT NODE        255   DOF  3
   INSTANCE: SPIRAL-1                                                                        
 LARGEST CORRECTION TO DISP.        5.946E-06   AT NODE        255   DOF  3
   INSTANCE: SPIRAL-1                                                                        
          FORCE     EQUILIBRIUM NOT ACHIEVED WITHIN TOLERANCE.
 
	SYMMETRIC PURE THREAD-BASED DIRECT SPARSE SOLVER RUNNING ON
 	1 HOST x 1 MPI RANK PER HOST x 1 THREAD PER RANK
        NUMBER OF EQUATIONS:  90774
        NUMBER OF RHS:        1
        NUMBER OF FLOPS:      6.037e+09
        SOLVER ELAPSED TIME:  481ms

               CONVERGENCE CHECKS FOR EQUILIBRIUM ITERATION     5


 AVERAGE FORCE                      5.410E-02   TIME AVG. FORCE       2.426E-02
 LARGEST SCALED RESIDUAL FORCE     -3.163E-05   AT NODE        839   DOF  3
   INSTANCE: SPIRAL-1                                                                        
  CORRESPONDING RESIDUAL FORCE     -3.163E-05
 LARGEST INCREMENT OF DISP.         1.482E-03   AT NODE        255   DOF  3
   INSTANCE: SPIRAL-1                                                                        
 LARGEST CORRECTION TO DISP.        5.616E-07   AT NODE        255   DOF  3
   INSTANCE: SPIRAL-1                                                                        
          THE FORCE     EQUILIBRIUM EQUATIONS HAVE CONVERGED

 ITERATION SUMMARY FOR THE INCREMENT:   5 TOTAL ITERATIONS, OF WHICH
   0 ARE SEVERE DISCONTINUITY ITERATIONS AND  5 ARE EQUILIBRIUM ITERATIONS.

 TIME INCREMENT COMPLETED  9.528E-02,  FRACTION OF STEP COMPLETED   1.00    
 STEP TIME COMPLETED        1.00    ,  TOTAL TIME COMPLETED         1.00    


          THE ANALYSIS HAS BEEN COMPLETED



     ANALYSIS SUMMARY:
     TOTAL OF         13  INCREMENTS
                       4  CUTBACKS IN AUTOMATIC INCREMENTATION
                      78  ITERATIONS INCLUDING CONTACT ITERATIONS IF PRESENT
                      78  PASSES THROUGH THE EQUATION SOLVER OF WHICH 
                      78  INVOLVE MATRIX DECOMPOSITION, INCLUDING
                       0  DECOMPOSITION(S) OF THE MASS MATRIX
                       1  REORDERING OF EQUATIONS TO MINIMIZE WAVEFRONT
                       0  ADDITIONAL RESIDUAL EVALUATIONS FOR LINE SEARCHES
                       0  ADDITIONAL OPERATOR EVALUATIONS FOR LINE SEARCHES
                       1  WARNING MESSAGES DURING USER INPUT PROCESSING
                      13  WARNING MESSAGES DURING ANALYSIS
                       0  ANALYSIS WARNINGS ARE NUMERICAL PROBLEM MESSAGES
                      11  ANALYSIS WARNINGS ARE NEGATIVE EIGENVALUE MESSAGES
                       0  ERROR MESSAGES



     JOB TIME SUMMARY
       USER TIME (SEC)      =     2.76E+02
       SYSTEM TIME (SEC)    =      22.    
       TOTAL CPU TIME (SEC) =     2.98E+02
       WALLCLOCK TIME (SEC) =          117
       MEMORY PEAK (GB)     =            0
