 Abaqus/Standard 2025                  DATE 22-Feb-2026 TIME 00:50:52
 SUMMARY OF JOB INFORMATION:
 STEP  INC ATT SEVERE EQUIL TOTAL  TOTAL      STEP       INC OF       DOF    IF
               DISCON ITERS ITERS  TIME/    TIME/LPF    TIME/LPF    MONITOR RIKS
               ITERS               FREQ
   1     1   1     0     3     3  0.00100    0.00100    0.001000  
   1     2   1     0     2     2  0.00200    0.00200    0.001000  
   1     3   1     0     2     2  0.00350    0.00350    0.001500  
   1     4   1     0     2     2  0.00575    0.00575    0.002250  
   1     5   1     0     2     2  0.00913    0.00913    0.003375  
   1     6   1     0     2     2  0.0142     0.0142     0.005063  
   1     7   1     0     3     3  0.0218     0.0218     0.007594  
   1     8   1     0     3     3  0.0332     0.0332     0.01139   
   1     9   1     0     4     4  0.0503     0.0503     0.01709   
   1    10   1     0     4     4  0.0759     0.0759     0.02563   
   1    11   1     0     4     4  0.114      0.114      0.03844   
   1    12   1     0     4     4  0.164      0.164      0.05000   
   1    13   1     0     4     4  0.214      0.214      0.05000   
   1    14   1     0     4     4  0.264      0.264      0.05000   
   1    15   1     0     4     4  0.314      0.314      0.05000   
   1    16   1     0     4     4  0.364      0.364      0.05000   
   1    17   1     0     4     4  0.414      0.414      0.05000   
   1    18   1     0     4     4  0.464      0.464      0.05000   
   1    19   1     0     4     4  0.514      0.514      0.05000   
   1    20   1     0     5     5  0.564      0.564      0.05000   
   1    21   1     0     6     6  0.614      0.614      0.05000   
   1    22   1     0     8     8  0.664      0.664      0.05000   
   1    23   1     0     9     9  0.714      0.714      0.05000   
   1    24   1U    0     4     4  0.714      0.714      0.05000   
   1    24   2     0     5     5  0.727      0.727      0.01250   
   1    25   1     0     5     5  0.739      0.739      0.01250   
   1    26   1     0     9     9  0.752      0.752      0.01250   
   1    27   1     0     6     6  0.764      0.764      0.01250   
   1    28   1     0     6     6  0.777      0.777      0.01250   
   1    29   1     0     4     4  0.789      0.789      0.01250   
   1    30   1     0     4     4  0.802      0.802      0.01250   
   1    31   1     0     4     4  0.821      0.821      0.01875   
   1    32   1     0     8     8  0.849      0.849      0.02813   
   1    33   1     0     8     8  0.877      0.877      0.02813   
   1    34   1     0     7     7  0.905      0.905      0.02813   
   1    35   1     0     5     5  0.933      0.933      0.02813   
   1    36   1U    0     4     4  0.933      0.933      0.02813   
   1    36   2     0     3     3  0.940      0.940      0.007031  
   1    37   1     0     3     3  0.947      0.947      0.007031  
   1    38   1     0     3     3  0.958      0.958      0.01055   
   1    39   1     0     3     3  0.974      0.974      0.01582   
   1    40   1     0     3     3  0.997      0.997      0.02373   
   1    41   1     0     2     2  1.00       1.00       0.002760  
                          
 THE ANALYSIS HAS COMPLETED SUCCESSFULLY
