1

   Abaqus 2025                                  Date 22-Feb-2026   Time 03:52:44
   For use by UNIVERSITAET STUTTGART under license from Dassault Systemes or its subsidiary.



                         The Abaqus Software is a product of:

                           Dassault Systemes Americas Corp.
                           1301 Atwood Avenue, Suite 101W
                              Johnston, RI 02919, USA
 


                   The Abaqus Software is available only under license
                   from Dassault Systemes or its subsidiary and may be
                   used or reproduced only in accordance with the terms
                   of such license.
 
                          On machine MIB40-GAUSS 
                          you are authorized to run
                          Abaqus/Standard until 31-Mar-2025

                          Your site id is: 200000000017928 


 
                    For assistance or any other information you may
                    obtain contact information for your local office
                    from the world wide web at:

                      https://www.3ds.com/products-services/simulia/services-support/

 
                * * * * * * * * * * * * * * * * * * * * * * * * * * * * * * 
                *                                                         * 
                *                   *****************                     * 
                *                   *  N O T I C E  *                     * 
                *                   *****************                     * 
                *                                                         * 
                *                                                         * 
                *                       Abaqus 2025                       * 
                *                                                         * 
                *       BUILD ID: 2024_09_20-15.00.46 RELr427 198590      * 
                *                                                         * 
                *                                                         * 
                *  Please make sure you are using                         * 
                *  release Abaqus 2025 manuals                            * 
                *  plus the notes accompanying this release.              * 
                *                                                         * 
                *                                                         * 
                *                                                         * 
                *                                                         * 
                *                                                         * 
                *   This program may not be used for commercial purposes  * 
                *           without payment of a commercial fee.          * 
                *                                                         * 
                * * * * * * * * * * * * * * * * * * * * * * * * * * * * * * 


 



     PROCESSING PART, INSTANCE, AND ASSEMBLY INFORMATION
   *******************************************************


     END PROCESSING PART, INSTANCE, AND ASSEMBLY INFORMATION
   ***********************************************************




     OPTIONS BEING PROCESSED
   ***************************


  *Element, type=C3D8R
  *Elset, elset=ASSEMBLY_SPIRAL-1_A-TAPE-SET
  *Elset, elset=ASSEMBLY_SPIRAL-1_B-TAPE-SET
  *Elset, elset=ASSEMBLY_SPIRAL-1_PLYWOOD-SET
  *Elset, elset=ASSEMBLY__PICKEDSET18
  *Elset, elset=ASSEMBLY___PICKEDSURF21_S2
  *heading
  *material, name=PLYWOOD
  *density
  *elastic
  *material, name=TAPE
  *density
  *elastic
  *solidsection, elset=ASSEMBLY_SPIRAL-1_A-TAPE-SET, material=TAPE
  *solidsection, elset=ASSEMBLY_SPIRAL-1_B-TAPE-SET, material=TAPE
  *solidsection, elset=ASSEMBLY_SPIRAL-1_PLYWOOD-SET, material=PLYWOOD
  *solidsection, elset=ASSEMBLY_SPIRAL-1_A-TAPE-SET, material=TAPE
  *solidsection, elset=ASSEMBLY_SPIRAL-1_B-TAPE-SET, material=TAPE
  *solidsection, elset=ASSEMBLY_SPIRAL-1_PLYWOOD-SET, material=PLYWOOD
  *surface, type=ELEMENT, name=ASSEMBLY__PICKEDSURF21
  *surface, type=ELEMENT, name=ASSEMBLY__PICKEDSURF21
  *boundary
  *boundary
  *surface, type=ELEMENT, name=ASSEMBLY__PICKEDSURF21
  *output, field, variable=PRESELECT
  *output, history, variable=PRESELECT
  *output, field, variable=PRESELECT
  *output, history, variable=PRESELECT
  *output, field, variable=PRESELECT
  *output, history, variable=PRESELECT
  
                               E L E M E N T   Q U A L I T Y  C H E C K S        
  
  
 ***NOTES: DISTORTED ISOPARAMETRIC ELEMENTS: ANGLE BETWEEN ISOPARAMETRIC LINES 
           IS LESS THAN 45 DEGREES OR GREATER THAN 135 DEGREES.
  
           TETRAHEDRAL QUALITY MEASURE: VOLUME OF TETRAHEDRON DIVIDED BY THE 
           VOLUME OF EQUILATERAL TETRAHEDRON WITH SAME CIRCUMSPHERE RADIUS; 
           0 FOR DEGENERATE TETRAHEDRON AND 1 FOR EQUILATERIAL TETRAHEDRON. IT 
           IS RECOMMENDED THAT THE TETRAHEDRAL QUALITY MEASURE BE GREATER THAN 
           0.02, THE MIN INTERIOR (DIHEDRAL) ANGLE BE GREATER THAN 10 DEGREES, 
           AND THE MAX INTERIOR (DIHEDRAL) ANGLE BE LESS THAN 160 DEGREES. 
  
           MODIFIED TETRAHEDRAL QUALITY MEASURE: ANGLES BETWEEN THE TWO LINE 
           SEGMENTS ON EACH EDGE; THE EDGES OF MODIFIED TETRAHEDRAL SHOULD BE 
           AS STRAIGHT AS POSSIBLE. IT IS RECOMMENDED THAT THE ANGLE BETWEEN 
           THE TWO LINE SEGMENTS ON EACH EDGE IS BETWEEN 160 AND 180 DEGREES. 
  
           TRIANGULAR QUALITY MEASURE: AREA OF TRIANGLE DIVIDED BY THE AREA OF 
           EQUILATERAL TRIANGLE WITH SAME CIRCUMCIRCLE RADIUS; 0 FOR DEGENERATE 
           TRIANGLE AND 1 FOR EQUILATERAL TRIANGLE. IT IS RECOMMENDED THAT THE
           TRIANGULAR QUALITY MEASURE BE GREATER THAN 0.01, THE MIN INTERIOR 
           ANGLE BE GREATER THAN 10 DEGREES, AND THE MAX INTERIOR ANGLE BE LESS 
           THAN 160 DEGREES. 
  
           NODAL ADJUSTMENTS ARISING FROM CONTACT INTERACTIONS AND/OR TIE 
           CONSTRAINTS CAN CAUSE SEVERE ELEMENT DISTORTION. IT MAY BE NECESSARY 
           TO REMESH IN ORDER TO REDUCE THE AMOUNT OF ADJUSTMENT. 

 ***WARNING: 1621 elements are distorted. Either the isoparametric angles are 
             out of the suggested limits or the triangular or tetrahedral 
             quality measure is bad. The elements have been identified in 
             element set WarnElemDistorted.
  
 --------------------------------------------------------------------------------
 Distorted isoparametric elements
  
      Element        Min/max angle   Adjusted nodes 
 ------------------ ---------------- -------------- 
       SPIRAL-1.329          14.6902       NO       
       SPIRAL-1.330           14.169       NO       
       SPIRAL-1.331           24.864       NO       
       SPIRAL-1.332          14.1752       NO       
       SPIRAL-1.333          15.5885       NO       
       SPIRAL-1.334           16.532       NO       
       SPIRAL-1.335          15.0859       NO       
       SPIRAL-1.336          13.8676       NO       
       SPIRAL-1.337          12.8284       NO       
       SPIRAL-1.338          11.9322       NO       
       SPIRAL-1.339          11.1513       NO       
       SPIRAL-1.340          10.4653       NO       
       SPIRAL-1.341          9.85818       NO       
       SPIRAL-1.342          9.31699       NO       
       SPIRAL-1.343          8.83163       NO       
       SPIRAL-1.344          8.39396       NO       
       SPIRAL-1.345          7.99744       NO       
       SPIRAL-1.346          7.63647       NO       
       SPIRAL-1.347          15.8605       NO       
       SPIRAL-1.348          8.05207       NO       
       SPIRAL-1.349          7.98643       NO       
       SPIRAL-1.350          7.92194       NO       
       SPIRAL-1.351          7.85841       NO       
       SPIRAL-1.352          7.79581       NO       
       SPIRAL-1.353          7.73425       NO       
       SPIRAL-1.354          7.67371       NO       
       SPIRAL-1.355          7.61401       NO       
       SPIRAL-1.356          7.55526       NO       
       SPIRAL-1.357          7.49744       NO       
       SPIRAL-1.358          7.44049       NO       
       SPIRAL-1.359          7.38436       NO       
       SPIRAL-1.360          7.32906       NO       
       SPIRAL-1.361          7.27461       NO       
       SPIRAL-1.362          7.22099       NO       
       SPIRAL-1.363           17.669       NO       
       SPIRAL-1.366           37.316       NO       
       SPIRAL-1.368          17.8293       NO       
       SPIRAL-1.370          40.7633       NO       
       SPIRAL-1.383          17.7898       NO       
       SPIRAL-1.402          25.7048       NO       
       SPIRAL-1.424          34.8109       NO       
       SPIRAL-1.430          24.3395       NO       
       SPIRAL-1.431          23.1753       NO       
       SPIRAL-1.445          17.8389       NO       
       SPIRAL-1.447          17.3603       NO       
       SPIRAL-1.448          17.6828       NO       
       SPIRAL-1.449          42.9224       NO       
       SPIRAL-1.450          43.2738       NO       
       SPIRAL-1.451          43.6078       NO       
       SPIRAL-1.452          17.6671       NO       
       SPIRAL-1.453          44.2878       NO       
       SPIRAL-1.454          44.7104       NO       
       SPIRAL-1.456           17.671       NO       
       SPIRAL-1.457          19.2369       NO       
       SPIRAL-1.474          22.2181       NO       
       SPIRAL-1.476          20.7684       NO       
       SPIRAL-1.489          17.5918       NO       
       SPIRAL-1.491          42.0142       NO       
       SPIRAL-1.502          17.6608       NO       
       SPIRAL-1.503          17.6635       NO       
       SPIRAL-1.504          43.9388       NO       
       SPIRAL-1.505          17.6654       NO       
       SPIRAL-1.506          17.6482       NO       
       SPIRAL-1.519          27.1854       NO       
       SPIRAL-1.520          28.8057       NO       
       SPIRAL-1.521           30.594       NO       
       SPIRAL-1.522          32.5839       NO       
       SPIRAL-1.523          40.1397       NO       
       SPIRAL-1.524           43.331       NO       
       SPIRAL-1.534          37.4777       NO       
       SPIRAL-1.535          19.1908       NO       
       SPIRAL-1.540          42.5269       NO       
       SPIRAL-1.553          21.4008       NO       
       SPIRAL-1.558          39.6818       NO       
       SPIRAL-1.560          39.2158       NO       
       SPIRAL-1.569          20.6875       NO       
       SPIRAL-1.570          35.6694       NO       
       SPIRAL-1.571          38.3739       NO       
       SPIRAL-1.572          37.9345       NO       
       SPIRAL-1.573          37.4744       NO       
       SPIRAL-1.574          38.6282       NO       
       SPIRAL-1.575          39.7775       NO       
       SPIRAL-1.576          39.4437       NO       
       SPIRAL-1.577          37.2881       NO       
       SPIRAL-1.578          34.9641       NO       
       SPIRAL-1.579          36.5297       NO       
       SPIRAL-1.580          35.9936       NO       
       SPIRAL-1.581          33.3674       NO       
       SPIRAL-1.582          35.1207       NO       
       SPIRAL-1.583          36.9969       NO       
       SPIRAL-1.584          36.6653       NO       
       SPIRAL-1.585          36.2978       NO       
       SPIRAL-1.586          35.8285       NO       
       SPIRAL-1.587          32.6674       NO       
       SPIRAL-1.588          27.6101       NO       
       SPIRAL-1.589          18.0166       NO       
      SPIRAL-1.1044          13.6478       NO       
      SPIRAL-1.1045          14.0249       NO       
      SPIRAL-1.1046          23.4173       NO       
      SPIRAL-1.1047          13.0756       NO       
      SPIRAL-1.1048          13.9741       NO       
      SPIRAL-1.1049          15.0019       NO       
      SPIRAL-1.1050          15.9028       NO       
      SPIRAL-1.1051          14.8092       NO       
      SPIRAL-1.1052          13.8536       NO       
      SPIRAL-1.1053          13.0116       NO       
      SPIRAL-1.1054          12.2646       NO       
      SPIRAL-1.1055          11.5977       NO       
      SPIRAL-1.1056          10.9988       NO       
      SPIRAL-1.1057          10.4581       NO       
      SPIRAL-1.1058          9.96748       NO       
      SPIRAL-1.1059          9.52036       NO       
      SPIRAL-1.1060          9.11137       NO       
      SPIRAL-1.1061          8.73585       NO       
      SPIRAL-1.1062          8.38985       NO       
      SPIRAL-1.1063          8.06999       NO       
      SPIRAL-1.1064          7.77341       NO       
      SPIRAL-1.1065          7.49781       NO       
      SPIRAL-1.1066          7.24101       NO       
      SPIRAL-1.1067           15.488       NO       
      SPIRAL-1.1068          7.86071       NO       
      SPIRAL-1.1069          7.80649       NO       
      SPIRAL-1.1070          7.75296       NO       
      SPIRAL-1.1071          7.70015       NO       
      SPIRAL-1.1072           7.6481       NO       
      SPIRAL-1.1073          7.59674       NO       
      SPIRAL-1.1074          7.54601       NO       
      SPIRAL-1.1075          7.49596       NO       
      SPIRAL-1.1076          7.44659       NO       
      SPIRAL-1.1077          7.39788       NO       
      SPIRAL-1.1078           7.3498       NO       
      SPIRAL-1.1079          7.30232       NO       
      SPIRAL-1.1080          7.25542       NO       
      SPIRAL-1.1081          7.20916       NO       
      SPIRAL-1.1082          7.16349       NO       
      SPIRAL-1.1083           7.1184       NO       
      SPIRAL-1.1084          7.07382       NO       
      SPIRAL-1.1085          7.02974       NO       
      SPIRAL-1.1086          6.98629       NO       
      SPIRAL-1.1087          6.94338       NO       
      SPIRAL-1.1091          36.4558       NO       
      SPIRAL-1.1095          35.9436       NO       
      SPIRAL-1.1105          44.3418       NO       
      SPIRAL-1.1106          41.7364       NO       
      SPIRAL-1.1107          39.3382       NO       
      SPIRAL-1.1108           37.071       NO       
      SPIRAL-1.1109          33.0063       NO       
      SPIRAL-1.1110          31.1817       NO       
      SPIRAL-1.1111          29.5082       NO       
      SPIRAL-1.1112          28.0392       NO       
      SPIRAL-1.1113          26.8061       NO       
      SPIRAL-1.1114          25.8159       NO       
      SPIRAL-1.1115          24.7835       NO       
      SPIRAL-1.1116          23.6608       NO       
      SPIRAL-1.1117          22.5725       NO       
      SPIRAL-1.1118          21.6271       NO       
      SPIRAL-1.1119          20.7815       NO       
      SPIRAL-1.1122          33.2152       NO       
      SPIRAL-1.1123          16.3539       NO       
      SPIRAL-1.1124          38.1033       NO       
      SPIRAL-1.1141          16.8017       NO       
      SPIRAL-1.1142          40.4099       NO       
      SPIRAL-1.1143          16.0064       NO       
      SPIRAL-1.1144          15.9361       NO       
      SPIRAL-1.1145           15.898       NO       
      SPIRAL-1.1146          33.5132       NO       
      SPIRAL-1.1147          15.9119       NO       
      SPIRAL-1.1148          15.9666       NO       
      SPIRAL-1.1149          16.1081       NO       
      SPIRAL-1.1150           16.077       NO       
      SPIRAL-1.1151          43.0777       NO       
      SPIRAL-1.1152          16.0051       NO       
      SPIRAL-1.1153           15.909       NO       
      SPIRAL-1.1154          15.8947       NO       
      SPIRAL-1.1155          15.9804       NO       
      SPIRAL-1.1156          16.0015       NO       
      SPIRAL-1.1157          16.0145       NO       
      SPIRAL-1.1158          16.0415       NO       
      SPIRAL-1.1159          17.7627       NO       
      SPIRAL-1.1162          44.5259       NO       
      SPIRAL-1.1179          20.0826       NO       
      SPIRAL-1.1181          19.4571       NO       
      SPIRAL-1.1183          18.9044       NO       
      SPIRAL-1.1198          36.2247       NO       
      SPIRAL-1.1199          41.1138       NO       
      SPIRAL-1.1202          35.3555       NO       
      SPIRAL-1.1203          39.9412       NO       
      SPIRAL-1.1205          35.6329       NO       
      SPIRAL-1.1206          34.6633       NO       
      SPIRAL-1.1232          34.9892       NO       
      SPIRAL-1.1234          15.9983       NO       
      SPIRAL-1.1235          41.3389       NO       
      SPIRAL-1.1282          16.3024       NO       
      SPIRAL-1.1283          43.3806       NO       
      SPIRAL-1.1284           34.434       NO       
      SPIRAL-1.1288          33.7771       NO       
      SPIRAL-1.1292          16.0201       NO       
      SPIRAL-1.1298          43.7895       NO       
      SPIRAL-1.1324          18.8775       NO       
      SPIRAL-1.1342          35.8056       NO       
      SPIRAL-1.1343          34.5972       NO       
      SPIRAL-1.1344          34.9338       NO       
      SPIRAL-1.1346          34.7525       NO       
      SPIRAL-1.1347          34.7712       NO       
      SPIRAL-1.1377          33.6886       NO       
      SPIRAL-1.1434          33.4497       NO       
      SPIRAL-1.1435          34.6285       NO       
      SPIRAL-1.1440          38.4234       NO       
      SPIRAL-1.1442          44.2403       NO       
      SPIRAL-1.1443          39.6586       NO       
      SPIRAL-1.1444           40.822       NO       
      SPIRAL-1.1446          39.0881       NO       
      SPIRAL-1.1447          42.6141       NO       
      SPIRAL-1.1449          40.3007       NO       
      SPIRAL-1.1452          40.6935       NO       
      SPIRAL-1.1455          38.5795       NO       
      SPIRAL-1.1456          39.8359       NO       
      SPIRAL-1.1457          39.5306       NO       
      SPIRAL-1.1503          37.5336       NO       
      SPIRAL-1.1521           41.286       NO       
      SPIRAL-1.1522          38.2653       NO       
      SPIRAL-1.1523          37.0785       NO       
      SPIRAL-1.1536          38.4153       NO       
      SPIRAL-1.1537          42.8864       NO       
      SPIRAL-1.1542          42.1586       NO       
      SPIRAL-1.1544          43.0097       NO       
      SPIRAL-1.1546          43.3429       NO       
      SPIRAL-1.1547          20.6252       NO       
      SPIRAL-1.1548          38.5552       NO       
      SPIRAL-1.1549          42.6414       NO       
      SPIRAL-1.1550          42.6601       NO       
      SPIRAL-1.1551          42.5522       NO       
      SPIRAL-1.1552          42.2917       NO       
      SPIRAL-1.1553          42.0121       NO       
      SPIRAL-1.1554           41.723       NO       
      SPIRAL-1.1555           39.296       NO       
      SPIRAL-1.1556          36.7415       NO       
      SPIRAL-1.1557            36.25       NO       
      SPIRAL-1.1558          35.7557       NO       
      SPIRAL-1.1559          35.2596       NO       
      SPIRAL-1.1560           34.763       NO       
      SPIRAL-1.1561          34.2667       NO       
      SPIRAL-1.1562          33.7717       NO       
      SPIRAL-1.1563          33.2795       NO       
      SPIRAL-1.1564          32.7903       NO       
      SPIRAL-1.1565          32.3048       NO       
      SPIRAL-1.1566           31.824       NO       
      SPIRAL-1.1567          33.9704       NO       
      SPIRAL-1.1568          33.4617       NO       
      SPIRAL-1.1569           30.414       NO       
      SPIRAL-1.1570          32.8257       NO       
      SPIRAL-1.1571           35.408       NO       
      SPIRAL-1.1572          34.9086       NO       
      SPIRAL-1.1573          30.5092       NO       
      SPIRAL-1.1574          18.1008       NO       
      SPIRAL-1.2549          13.3985       NO       
      SPIRAL-1.2550          13.6724       NO       
      SPIRAL-1.2551          22.6248       NO       
      SPIRAL-1.2552          12.4641       NO       
      SPIRAL-1.2553          13.0554       NO       
      SPIRAL-1.2554          13.7046       NO       
      SPIRAL-1.2555          14.4202       NO       
      SPIRAL-1.2556          15.2116       NO       
      SPIRAL-1.2557          15.1148       NO       
      SPIRAL-1.2558          14.3371       NO       
      SPIRAL-1.2559          13.6341       NO       
      SPIRAL-1.2560          12.9957       NO       
      SPIRAL-1.2561          12.4135       NO       
      SPIRAL-1.2562          11.8804       NO       
      SPIRAL-1.2563          11.3907       NO       
      SPIRAL-1.2564          10.9393       NO       
      SPIRAL-1.2565           10.522       NO       
      SPIRAL-1.2566          10.1351       NO       
      SPIRAL-1.2567          9.77526       NO       
      SPIRAL-1.2568          9.43987       NO       
      SPIRAL-1.2569          9.12656       NO       
      SPIRAL-1.2570          8.83325       NO       
      SPIRAL-1.2571          8.55806       NO       
      SPIRAL-1.2572          8.29937       NO       
      SPIRAL-1.2573          8.05575       NO       
      SPIRAL-1.2574          7.82597       NO       
      SPIRAL-1.2575          7.60884       NO       
      SPIRAL-1.2576          7.40337       NO       
      SPIRAL-1.2577          7.20865       NO       
      SPIRAL-1.2578          7.02386       NO       
      SPIRAL-1.2579          15.3983       NO       
      SPIRAL-1.2580           7.8183       NO       
      SPIRAL-1.2581          7.77401       NO       
      SPIRAL-1.2582          7.73022       NO       
      SPIRAL-1.2583          7.68693       NO       
      SPIRAL-1.2584          7.64413       NO       
      SPIRAL-1.2585          7.60177       NO       
      SPIRAL-1.2586          7.55989       NO       
      SPIRAL-1.2587          7.51845       NO       
      SPIRAL-1.2588          7.47745       NO       
      SPIRAL-1.2589           7.4369       NO       
      SPIRAL-1.2590          7.39673       NO       
      SPIRAL-1.2591          7.35705       NO       
      SPIRAL-1.2592          7.31777       NO       
      SPIRAL-1.2593          7.27896       NO       
      SPIRAL-1.2594          7.24055       NO       
      SPIRAL-1.2595          7.20251       NO       
      SPIRAL-1.2596          7.16487       NO       
      SPIRAL-1.2597          7.12763       NO       
      SPIRAL-1.2598          7.09076       NO       
      SPIRAL-1.2599          7.05426       NO       
      SPIRAL-1.2600          7.01815       NO       
      SPIRAL-1.2601          6.98241       NO       
      SPIRAL-1.2602          6.94702       NO       
      SPIRAL-1.2603          6.91198       NO       
      SPIRAL-1.2604          6.87732       NO       
      SPIRAL-1.2605          6.84298       NO       
      SPIRAL-1.2606          6.80898       NO       
      SPIRAL-1.2611          17.2408       NO       
      SPIRAL-1.2612           17.098       NO       
      SPIRAL-1.2613          38.9986       NO       
      SPIRAL-1.2614          16.9927       NO       
      SPIRAL-1.2615          16.9601       NO       
      SPIRAL-1.2616           17.018       NO       
      SPIRAL-1.2619          39.5584       NO       
      SPIRAL-1.2622          16.9823       NO       
      SPIRAL-1.2623          39.3269       NO       
      SPIRAL-1.2665          35.0823       NO       
      SPIRAL-1.2667          31.2539       NO       
      SPIRAL-1.2668           27.982       NO       
      SPIRAL-1.2721          38.2089       NO       
      SPIRAL-1.2722          42.7095       NO       
      SPIRAL-1.2733          38.7136       NO       
      SPIRAL-1.2734          43.5118       NO       
      SPIRAL-1.2739          43.4694       NO       
      SPIRAL-1.2740          17.1098       NO       
      SPIRAL-1.2741          17.1196       NO       
      SPIRAL-1.2745          17.0456       NO       
      SPIRAL-1.2746          17.0639       NO       
      SPIRAL-1.2747          17.0269       NO       
      SPIRAL-1.2748          36.1549       NO       
      SPIRAL-1.2749          17.0096       NO       
      SPIRAL-1.2750          35.8946       NO       
      SPIRAL-1.2751           17.335       NO       
      SPIRAL-1.2752          17.9898       NO       
      SPIRAL-1.2753          43.7226       NO       
      SPIRAL-1.2755          20.2459       NO       
      SPIRAL-1.2757          22.9535       NO       
      SPIRAL-1.2760          23.5909       NO       
      SPIRAL-1.2761          24.0654       NO       
      SPIRAL-1.2762          24.7715       NO       
      SPIRAL-1.2764          30.2153       NO       
      SPIRAL-1.2765          32.3949       NO       
      SPIRAL-1.2766          38.1089       NO       
      SPIRAL-1.2783          16.5943       NO       
      SPIRAL-1.2784          17.0544       NO       
      SPIRAL-1.2785          38.1587       NO       
      SPIRAL-1.2787          38.0861       NO       
      SPIRAL-1.2789          38.0956       NO       
      SPIRAL-1.2790          17.0903       NO       
      SPIRAL-1.2791          17.0933       NO       
      SPIRAL-1.2792          42.6241       NO       
      SPIRAL-1.2793          17.0695       NO       
      SPIRAL-1.2794          37.4687       NO       
      SPIRAL-1.2795          17.0457       NO       
      SPIRAL-1.2849            43.46       NO       
      SPIRAL-1.2853          42.9796       NO       
      SPIRAL-1.2854          39.0466       NO       
      SPIRAL-1.2855          43.7691       NO       
      SPIRAL-1.2859          39.2355       NO       
      SPIRAL-1.2893          36.5422       NO       
      SPIRAL-1.2895          27.1096       NO       
      SPIRAL-1.2896          25.4315       NO       
      SPIRAL-1.2897          21.4905       NO       
      SPIRAL-1.2899          25.5615       NO       
      SPIRAL-1.2907          17.0098       NO       
      SPIRAL-1.2908          17.0564       NO       
      SPIRAL-1.2909          17.0482       NO       
      SPIRAL-1.2921          21.5057       NO       
      SPIRAL-1.2923          38.3241       NO       
      SPIRAL-1.2924          17.0452       NO       
      SPIRAL-1.2982          40.4984       NO       
      SPIRAL-1.2984           38.598       NO       
      SPIRAL-1.2985          38.4582       NO       
      SPIRAL-1.2986          43.4603       NO       
      SPIRAL-1.2987          17.0345       NO       
      SPIRAL-1.2988           36.852       NO       
      SPIRAL-1.2989          37.2213       NO       
      SPIRAL-1.2990          35.6882       NO       
      SPIRAL-1.2991          17.0924       NO       
      SPIRAL-1.2992          38.0068       NO       
      SPIRAL-1.2993          37.0578       NO       
      SPIRAL-1.2994          17.0684       NO       
      SPIRAL-1.2995          38.5483       NO       
      SPIRAL-1.2996          38.8876       NO       
      SPIRAL-1.2997            37.79       NO       
      SPIRAL-1.3007          21.8497       NO       
      SPIRAL-1.3017          41.5089       NO       
      SPIRAL-1.3018          43.4822       NO       
      SPIRAL-1.3020          28.9573       NO       
      SPIRAL-1.3022          21.9596       NO       
      SPIRAL-1.3025          33.7143       NO       
      SPIRAL-1.3028          26.1842       NO       
      SPIRAL-1.3031          23.2549       NO       
      SPIRAL-1.3038          43.6861       NO       
      SPIRAL-1.3045          43.0747       NO       
      SPIRAL-1.3067          36.5332       NO       
      SPIRAL-1.3075          43.2373       NO       
      SPIRAL-1.3087          39.3007       NO       
      SPIRAL-1.3109          41.7318       NO       
      SPIRAL-1.3123           44.464       NO       
      SPIRAL-1.3136          42.5623       NO       
      SPIRAL-1.3157          43.7218       NO       
      SPIRAL-1.3162          42.8957       NO       
      SPIRAL-1.3174          42.9909       NO       
      SPIRAL-1.3175          42.8522       NO       
      SPIRAL-1.3176          43.0364       NO       
      SPIRAL-1.3185          44.5872       NO       
      SPIRAL-1.3200          39.8239       NO       
      SPIRAL-1.3217          41.2517       NO       
      SPIRAL-1.3224          39.7214       NO       
      SPIRAL-1.3238          22.3869       NO       
      SPIRAL-1.3239          38.7651       NO       
      SPIRAL-1.3240          39.6846       NO       
      SPIRAL-1.3241          40.5885       NO       
      SPIRAL-1.3242          40.4764       NO       
      SPIRAL-1.3243          40.2738       NO       
      SPIRAL-1.3244          38.8541       NO       
      SPIRAL-1.3245          37.3316       NO       
      SPIRAL-1.3246          37.0697       NO       
      SPIRAL-1.3247          36.8024       NO       
      SPIRAL-1.3248          36.5302       NO       
      SPIRAL-1.3249          36.2535       NO       
      SPIRAL-1.3250          35.9727       NO       
      SPIRAL-1.3251          35.6883       NO       
      SPIRAL-1.3252          35.4007       NO       
      SPIRAL-1.3253            35.11       NO       
      SPIRAL-1.3254           34.817       NO       
      SPIRAL-1.3255          34.5219       NO       
      SPIRAL-1.3256          34.2251       NO       
      SPIRAL-1.3257          35.9017       NO       
      SPIRAL-1.3258          37.6053       NO       
      SPIRAL-1.3259          37.4432       NO       
      SPIRAL-1.3260          37.2738       NO       
      SPIRAL-1.3261           37.076       NO       
      SPIRAL-1.3262          36.8557       NO       
      SPIRAL-1.3263          36.6358       NO       
      SPIRAL-1.3264          36.4298       NO       
      SPIRAL-1.3265          36.2329       NO       
      SPIRAL-1.3266          35.9963       NO       
      SPIRAL-1.3267          35.7332       NO       
      SPIRAL-1.3268          35.4791       NO       
      SPIRAL-1.3269          35.2198       NO       
      SPIRAL-1.3270          34.9761       NO       
      SPIRAL-1.3271          34.7046       NO       
      SPIRAL-1.3272          34.4014       NO       
      SPIRAL-1.3273           30.543       NO       
      SPIRAL-1.3274           18.384       NO       
      SPIRAL-1.4611          13.0756       NO       
      SPIRAL-1.4612          13.2757       NO       
      SPIRAL-1.4613          21.9379       NO       
      SPIRAL-1.4614          11.9685       NO       
      SPIRAL-1.4615          12.3725       NO       
      SPIRAL-1.4616          12.8041       NO       
      SPIRAL-1.4617          13.2664       NO       
      SPIRAL-1.4618          13.7628       NO       
      SPIRAL-1.4619          14.2976       NO       
      SPIRAL-1.4620          14.8741       NO       
      SPIRAL-1.4621           14.778       NO       
      SPIRAL-1.4622          14.1889       NO       
      SPIRAL-1.4623          13.6442       NO       
      SPIRAL-1.4624           13.139       NO       
      SPIRAL-1.4625          12.6694       NO       
      SPIRAL-1.4626          12.2316       NO       
      SPIRAL-1.4627          11.8227       NO       
      SPIRAL-1.4628          11.4399       NO       
      SPIRAL-1.4629          11.0809       NO       
      SPIRAL-1.4630          10.7434       NO       
      SPIRAL-1.4631          10.4256       NO       
      SPIRAL-1.4632          10.1259       NO       
      SPIRAL-1.4633          9.84273       NO       
      SPIRAL-1.4634          9.57486       NO       
      SPIRAL-1.4635          9.32105       NO       
      SPIRAL-1.4636          9.08025       NO       
      SPIRAL-1.4637          8.85149       NO       
      SPIRAL-1.4638          8.63386       NO       
      SPIRAL-1.4639          8.42661       NO       
      SPIRAL-1.4640          8.22901       NO       
      SPIRAL-1.4641           8.0404       NO       
      SPIRAL-1.4642           7.8602       NO       
      SPIRAL-1.4643          7.68785       NO       
      SPIRAL-1.4644          7.52285       NO       
      SPIRAL-1.4645          7.36476       NO       
      SPIRAL-1.4646          7.21312       NO       
      SPIRAL-1.4647          7.06758       NO       
      SPIRAL-1.4648          6.92777       NO       
      SPIRAL-1.4649          6.79339       NO       
      SPIRAL-1.4650          15.2082       NO       
      SPIRAL-1.4651           7.7222       NO       
      SPIRAL-1.4652          7.68634       NO       
      SPIRAL-1.4653          7.65079       NO       
      SPIRAL-1.4654          7.61557       NO       
      SPIRAL-1.4655          7.58067       NO       
      SPIRAL-1.4656          7.54609       NO       
      SPIRAL-1.4657          7.51182       NO       
      SPIRAL-1.4658          7.47786       NO       
      SPIRAL-1.4659          7.44421       NO       
      SPIRAL-1.4660          7.41086       NO       
      SPIRAL-1.4661          7.37779       NO       
      SPIRAL-1.4662          7.34504       NO       
      SPIRAL-1.4663          7.31257       NO       
      SPIRAL-1.4664          7.28037       NO       
      SPIRAL-1.4665           7.2485       NO       
      SPIRAL-1.4666           7.2169       NO       
      SPIRAL-1.4667          7.18554       NO       
      SPIRAL-1.4668          7.15444       NO       
      SPIRAL-1.4669          7.12361       NO       
      SPIRAL-1.4670          7.09305       NO       
      SPIRAL-1.4671          7.06275       NO       
      SPIRAL-1.4672           7.0327       NO       
      SPIRAL-1.4673          7.00291       NO       
      SPIRAL-1.4674          6.97336       NO       
      SPIRAL-1.4675          6.94407       NO       
      SPIRAL-1.4676          6.91502       NO       
      SPIRAL-1.4677           6.8862       NO       
      SPIRAL-1.4678          6.85763       NO       
      SPIRAL-1.4679          6.82929       NO       
      SPIRAL-1.4680          6.80118       NO       
      SPIRAL-1.4681          6.77331       NO       
      SPIRAL-1.4682          6.74566       NO       
      SPIRAL-1.4683          6.71823       NO       
      SPIRAL-1.4684          6.69102       NO       
      SPIRAL-1.4685          6.66404       NO       
      SPIRAL-1.4686           6.6373       NO       
      SPIRAL-1.4687          17.0253       NO       
      SPIRAL-1.4690          35.3043       NO       
      SPIRAL-1.4692          16.8714       NO       
      SPIRAL-1.4694          37.5354       NO       
      SPIRAL-1.4695          42.8354       NO       
      SPIRAL-1.4701          17.0308       NO       
      SPIRAL-1.4703          44.2042       NO       
      SPIRAL-1.4705          40.5141       NO       
      SPIRAL-1.4712          27.2175       NO       
      SPIRAL-1.4727          32.1942       NO       
      SPIRAL-1.4730          25.2051       NO       
      SPIRAL-1.4731          20.7084       NO       
      SPIRAL-1.4743          16.7647       NO       
      SPIRAL-1.4744          36.3931       NO       
      SPIRAL-1.4745          16.3428       NO       
      SPIRAL-1.4746          39.7671       NO       
      SPIRAL-1.4747          41.9423       NO       
      SPIRAL-1.4748          16.7709       NO       
      SPIRAL-1.4750          42.2421       NO       
      SPIRAL-1.4751           17.745       NO       
      SPIRAL-1.4761          16.8174       NO       
      SPIRAL-1.4762          35.3719       NO       
      SPIRAL-1.4763          16.4891       NO       
      SPIRAL-1.4774           44.765       NO       
      SPIRAL-1.4775          16.5262       NO       
      SPIRAL-1.4785          18.5144       NO       
      SPIRAL-1.4787          16.7603       NO       
      SPIRAL-1.4798          35.6083       NO       
      SPIRAL-1.4799           29.526       NO       
      SPIRAL-1.4800          38.9467       NO       
      SPIRAL-1.4801          43.2311       NO       
      SPIRAL-1.4806          26.4746       NO       
      SPIRAL-1.4807          40.8809       NO       
      SPIRAL-1.4808          32.2899       NO       
      SPIRAL-1.4809          19.0439       NO       
      SPIRAL-1.4817          43.1008       NO       
      SPIRAL-1.4824          34.2776       NO       
      SPIRAL-1.4825          14.5678       NO       
      SPIRAL-1.4826          42.5374       NO       
      SPIRAL-1.4828          36.2623       NO       
      SPIRAL-1.4832           43.717       NO       
      SPIRAL-1.4834          17.7687       NO       
      SPIRAL-1.4835          27.3687       NO       
      SPIRAL-1.4836          30.2136       NO       
      SPIRAL-1.4837          33.6229       NO       
      SPIRAL-1.4838          37.3066       NO       
      SPIRAL-1.4839          38.1622       NO       
      SPIRAL-1.4840          38.9119       NO       
      SPIRAL-1.4841          39.5578       NO       
      SPIRAL-1.4842          40.2011       NO       
      SPIRAL-1.4843          40.7587       NO       
      SPIRAL-1.4844          41.2174       NO       
      SPIRAL-1.4845          41.6544       NO       
      SPIRAL-1.4846          42.0565       NO       
      SPIRAL-1.4847          42.4053       NO       
      SPIRAL-1.4848          38.6525       NO       
      SPIRAL-1.4849          21.2991       NO       
      SPIRAL-1.5195          42.5904       NO       
      SPIRAL-1.5204          41.6849       NO       
      SPIRAL-1.5205          35.6804       NO       
      SPIRAL-1.5206          32.0707       NO       
      SPIRAL-1.5207          23.0479       NO       
      SPIRAL-1.5208          20.9495       NO       
      SPIRAL-1.5209          19.0715       NO       
      SPIRAL-1.5230          41.8166       NO       
      SPIRAL-1.5231          16.9481       NO       
      SPIRAL-1.5237          17.0277       NO       
      SPIRAL-1.5247          44.9543       NO       
      SPIRAL-1.5249          23.6689       NO       
      SPIRAL-1.5431          15.2558       NO       
      SPIRAL-1.5432          14.5308       NO       
      SPIRAL-1.5433          26.6559       NO       
      SPIRAL-1.5434          15.6722       NO       
      SPIRAL-1.5435          17.5109       NO       
      SPIRAL-1.5436          15.4924       NO       
      SPIRAL-1.5437          13.8826       NO       
      SPIRAL-1.5438          12.5713       NO       
      SPIRAL-1.5439          11.4832       NO       
      SPIRAL-1.5440          10.5663       NO       
      SPIRAL-1.5441          9.78385       NO       
      SPIRAL-1.5442          9.10841       NO       
      SPIRAL-1.5443          8.51948       NO       
      SPIRAL-1.5444          8.00165       NO       
      SPIRAL-1.5445          16.0608       NO       
      SPIRAL-1.5446          8.15066       NO       
      SPIRAL-1.5447          8.07097       NO       
      SPIRAL-1.5448          7.99276       NO       
      SPIRAL-1.5449          7.91597       NO       
      SPIRAL-1.5450          7.84073       NO       
      SPIRAL-1.5451           7.7669       NO       
      SPIRAL-1.5452          7.69434       NO       
      SPIRAL-1.5453          7.62319       NO       
      SPIRAL-1.5454          7.55335       NO       
      SPIRAL-1.5455           7.4847       NO       
      SPIRAL-1.5456          7.41734       NO       
      SPIRAL-1.5461          10.2926       NO       
      SPIRAL-1.5462          11.0089       NO       
      SPIRAL-1.5463            11.83       NO       
      SPIRAL-1.5464           12.781       NO       
      SPIRAL-1.5465          13.8959       NO       
      SPIRAL-1.5466           15.219       NO       
      SPIRAL-1.5467          16.8123       NO       
      SPIRAL-1.5468          18.7635       NO       
      SPIRAL-1.5469          21.2043       NO       
      SPIRAL-1.5470           24.334       NO       
      SPIRAL-1.5471          28.4566       NO       
      SPIRAL-1.5472          34.0654       NO       
      SPIRAL-1.5473          41.9463       NO       
      SPIRAL-1.5477          6.28937       NO       
      SPIRAL-1.5478          6.24139       NO       
      SPIRAL-1.5479          6.19407       NO       
      SPIRAL-1.5480          6.14807       NO       
      SPIRAL-1.5481          6.10237       NO       
      SPIRAL-1.5482          6.05712       NO       
      SPIRAL-1.5483          6.01271       NO       
      SPIRAL-1.5484          5.96973       NO       
      SPIRAL-1.5485          5.92669       NO       
      SPIRAL-1.5486          5.88393       NO       
      SPIRAL-1.5487          5.84257       NO       
      SPIRAL-1.5488          5.80159       NO       
      SPIRAL-1.5489          5.76071       NO       
      SPIRAL-1.5490          5.72034       NO       
      SPIRAL-1.5491          5.68111       NO       
      SPIRAL-1.5492          10.6497       NO       
      SPIRAL-1.5493          18.8475       NO       
      SPIRAL-1.5494          12.2562       NO       
      SPIRAL-1.5499          12.0545       NO       
      SPIRAL-1.5500          18.2995       NO       
      SPIRAL-1.5501          9.89114       NO       
      SPIRAL-1.5502          10.4031       NO       
      SPIRAL-1.5503            10.97       NO       
      SPIRAL-1.5504           11.601       NO       
      SPIRAL-1.5505          12.3083       NO       
      SPIRAL-1.5506          13.1056       NO       
      SPIRAL-1.5507          14.0124       NO       
      SPIRAL-1.5508          15.0497       NO       
      SPIRAL-1.5509          16.2487       NO       
      SPIRAL-1.5510          17.6479       NO       
      SPIRAL-1.5511          19.3014       NO       
      SPIRAL-1.5512          21.2829       NO       
      SPIRAL-1.5513          23.6901       NO       
      SPIRAL-1.5514          26.6659       NO       
      SPIRAL-1.5515          30.4169       NO       
      SPIRAL-1.5516          35.2449       NO       
      SPIRAL-1.5517          41.5789       NO       
      SPIRAL-1.5522          6.18757       NO       
      SPIRAL-1.5523           6.1522       NO       
      SPIRAL-1.5524          6.11746       NO       
      SPIRAL-1.5525          6.08338       NO       
      SPIRAL-1.5526          6.04905       NO       
      SPIRAL-1.5527          6.01555       NO       
      SPIRAL-1.5528          5.98196       NO       
      SPIRAL-1.5529          5.94903       NO       
      SPIRAL-1.5530          5.91629       NO       
      SPIRAL-1.5531          5.88425       NO       
      SPIRAL-1.5532           5.8522       NO       
      SPIRAL-1.5533          5.82055       NO       
      SPIRAL-1.5534          5.78935       NO       
      SPIRAL-1.5535          5.75868       NO       
      SPIRAL-1.5536          5.72828       NO       
      SPIRAL-1.5537          5.69778       NO       
      SPIRAL-1.5538          5.66792       NO       
      SPIRAL-1.5539          5.63834       NO       
      SPIRAL-1.5540          5.60919       NO       
      SPIRAL-1.5541          5.57998       NO       
      SPIRAL-1.5542          10.4814       NO       
      SPIRAL-1.5547          12.0526       NO       
      SPIRAL-1.5548          18.0896       NO       
      SPIRAL-1.5549          9.70923       NO       
      SPIRAL-1.5550          10.0796       NO       
      SPIRAL-1.5551          10.4781       NO       
      SPIRAL-1.5552          10.9094       NO       
      SPIRAL-1.5553          11.3775       NO       
      SPIRAL-1.5554          11.8867       NO       
      SPIRAL-1.5555          12.4425       NO       
      SPIRAL-1.5556           13.052       NO       
      SPIRAL-1.5557           13.723       NO       
      SPIRAL-1.5558          14.4656       NO       
      SPIRAL-1.5559          15.2905       NO       
      SPIRAL-1.5560          16.2128       NO       
      SPIRAL-1.5561            17.25       NO       
      SPIRAL-1.5562          18.4249       NO       
      SPIRAL-1.5563          19.7642       NO       
      SPIRAL-1.5564          21.3038       NO       
      SPIRAL-1.5565          23.0892       NO       
      SPIRAL-1.5566          25.1776       NO       
      SPIRAL-1.5567          27.6515       NO       
      SPIRAL-1.5568          30.6144       NO       
      SPIRAL-1.5569          34.2043       NO       
      SPIRAL-1.5570          38.6023       NO       
      SPIRAL-1.5571          44.0448       NO       
      SPIRAL-1.5577          6.19147       NO       
      SPIRAL-1.5578          6.16479       NO       
      SPIRAL-1.5579           6.1386       NO       
      SPIRAL-1.5580          6.11233       NO       
      SPIRAL-1.5581          6.08669       NO       
      SPIRAL-1.5582          6.06087       NO       
      SPIRAL-1.5583          6.03552       NO       
      SPIRAL-1.5584          6.01015       NO       
      SPIRAL-1.5585          5.98535       NO       
      SPIRAL-1.5586          5.96049       NO       
      SPIRAL-1.5587           5.9361       NO       
      SPIRAL-1.5588          5.91165       NO       
      SPIRAL-1.5589          5.88762       NO       
      SPIRAL-1.5590          5.86327       NO       
      SPIRAL-1.5591          5.83966       NO       
      SPIRAL-1.5592          5.81587       NO       
      SPIRAL-1.5593          5.79262       NO       
      SPIRAL-1.5594          5.76973       NO       
      SPIRAL-1.5595          5.74669       NO       
      SPIRAL-1.5596          5.72421       NO       
      SPIRAL-1.5597          5.70135       NO       
      SPIRAL-1.5598          5.67905       NO       
      SPIRAL-1.5599          5.65665       NO       
      SPIRAL-1.5600          5.63444       NO       
      SPIRAL-1.5601          5.61221       NO       
      SPIRAL-1.5602          5.59059       NO       
      SPIRAL-1.5603          5.56888       NO       
      SPIRAL-1.5604          10.4681       NO       
      SPIRAL-1.5609          11.9404       NO       
      SPIRAL-1.5610           17.779       NO       
      SPIRAL-1.5611          9.48826       NO       
      SPIRAL-1.5612          9.75818       NO       
      SPIRAL-1.5613          10.0434       NO       
      SPIRAL-1.5614          10.3458       NO       
      SPIRAL-1.5615          10.6667       NO       
      SPIRAL-1.5616          11.0077       NO       
      SPIRAL-1.5617          11.3715       NO       
      SPIRAL-1.5618          11.7598       NO       
      SPIRAL-1.5619          12.1747       NO       
      SPIRAL-1.5620          12.6194       NO       
      SPIRAL-1.5621          13.0973       NO       
      SPIRAL-1.5622          13.6121       NO       
      SPIRAL-1.5623          14.1684       NO       
      SPIRAL-1.5624          14.7714       NO       
      SPIRAL-1.5625          15.4265       NO       
      SPIRAL-1.5626          16.1406       NO       
      SPIRAL-1.5627           16.922       NO       
      SPIRAL-1.5628            17.78       NO       
      SPIRAL-1.5629           18.727       NO       
      SPIRAL-1.5630          19.7756       NO       
      SPIRAL-1.5631           20.944       NO       
      SPIRAL-1.5632           22.253       NO       
      SPIRAL-1.5633           23.725       NO       
      SPIRAL-1.5634          25.3915       NO       
      SPIRAL-1.5635          27.2903       NO       
      SPIRAL-1.5636          29.4688       NO       
      SPIRAL-1.5637          31.9865       NO       
      SPIRAL-1.5638          34.9162       NO       
      SPIRAL-1.5639          38.3485       NO       
      SPIRAL-1.5640           42.392       NO       
      SPIRAL-1.5648           6.1343       NO       
      SPIRAL-1.5649          6.11449       NO       
      SPIRAL-1.5650          6.09498       NO       
      SPIRAL-1.5651          6.07565       NO       
      SPIRAL-1.5652          6.05618       NO       
      SPIRAL-1.5653          6.03698       NO       
      SPIRAL-1.5654           6.0179       NO       
      SPIRAL-1.5655          5.99897       NO       
      SPIRAL-1.5656          5.98023       NO       
      SPIRAL-1.5657          5.96142       NO       
      SPIRAL-1.5658          5.94283       NO       
      SPIRAL-1.5659          5.92435       NO       
      SPIRAL-1.5660          5.90598       NO       
      SPIRAL-1.5661          5.88767       NO       
      SPIRAL-1.5662          5.86952       NO       
      SPIRAL-1.5663          5.85154       NO       
      SPIRAL-1.5664          5.83368       NO       
      SPIRAL-1.5665          5.81578       NO       
      SPIRAL-1.5666          5.79808       NO       
      SPIRAL-1.5667           5.7805       NO       
      SPIRAL-1.5668          5.76305       NO       
      SPIRAL-1.5669          5.74544       NO       
      SPIRAL-1.5670          5.72793       NO       
      SPIRAL-1.5671          5.71077       NO       
      SPIRAL-1.5672          5.69366       NO       
      SPIRAL-1.5673          5.67663       NO       
      SPIRAL-1.5674          5.65973       NO       
      SPIRAL-1.5675          5.64299       NO       
      SPIRAL-1.5676          5.62635       NO       
      SPIRAL-1.5677          5.60977       NO       
      SPIRAL-1.5678          5.59336       NO       
      SPIRAL-1.5679            5.577       NO       
      SPIRAL-1.5680          5.56074       NO       
      SPIRAL-1.5681           5.5446       NO       
      SPIRAL-1.5682          5.52857       NO       
      SPIRAL-1.5683          5.51243       NO       
      SPIRAL-1.5684          10.3733       NO       
      SPIRAL-1.5689          19.2181       NO       
      SPIRAL-1.5690          12.2575       NO       
      SPIRAL-1.5691          10.6272       NO       
      SPIRAL-1.5692          11.6477       NO       
      SPIRAL-1.5693          12.8806       NO       
      SPIRAL-1.5694          14.3993       NO       
      SPIRAL-1.5695          16.3116       NO       
      SPIRAL-1.5696          18.7901       NO       
      SPIRAL-1.5697          22.1149       NO       
      SPIRAL-1.5698          26.7648       NO       
      SPIRAL-1.5699          33.6076       NO       
      SPIRAL-1.5700           44.251       NO       
      SPIRAL-1.5703          6.28226       NO       
      SPIRAL-1.5704           6.2188       NO       
      SPIRAL-1.5705          6.15693       NO       
      SPIRAL-1.5706          6.09587       NO       
      SPIRAL-1.5707          6.03616       NO       
      SPIRAL-1.5708          5.97817       NO       
      SPIRAL-1.5709          5.92035       NO       
      SPIRAL-1.5710          5.86424       NO       
      SPIRAL-1.5711          5.80932       NO       
      SPIRAL-1.5712          5.75515       NO       
      SPIRAL-1.5713          5.70188       NO       
      SPIRAL-1.5714          10.6746       NO       
      SPIRAL-1.5742          37.3422       NO       
      SPIRAL-1.5743          37.9624       NO       
      SPIRAL-1.5745          37.5842       NO       
      SPIRAL-1.5746          37.7969       NO       
      SPIRAL-1.5754          28.3011       NO       
      SPIRAL-1.5755          18.3527       NO       
      SPIRAL-1.5756          12.6257       NO       
      SPIRAL-1.5757          10.9969       NO       
      SPIRAL-1.5758          10.9084       NO       
      SPIRAL-1.5759          20.1522       NO       
      SPIRAL-1.5937          42.0033       NO       
      SPIRAL-1.5938          27.4395       NO       
      SPIRAL-1.5939          10.8736       NO       
      SPIRAL-1.5940          17.3596       NO       
      SPIRAL-1.5941          18.1869       NO       
      SPIRAL-1.5942          10.4952       NO       
      SPIRAL-1.5943          17.5417       NO       
      SPIRAL-1.5944          21.1665       NO       
      SPIRAL-1.5945          39.9954       NO       
      SPIRAL-1.5946          33.2337       NO       
      SPIRAL-1.5947          36.1602       NO       
      SPIRAL-1.5948           38.923       NO       
      SPIRAL-1.5949           11.477       NO       
      SPIRAL-1.5950          19.3139       NO       
      SPIRAL-1.5951          30.0402       NO       
      SPIRAL-1.5952           11.445       NO       
      SPIRAL-1.5953          11.6056       NO       
      SPIRAL-1.5954          11.1824       NO       
      SPIRAL-1.5955          21.0335       NO       
      SPIRAL-1.5956          30.9511       NO       
      SPIRAL-1.5958          27.4575       NO       
      SPIRAL-1.5959          27.4081       NO       
      SPIRAL-1.5960          26.5168       NO       
      SPIRAL-1.5961          11.0452       NO       
      SPIRAL-1.5962           10.995       NO       
      SPIRAL-1.5963          11.0183       NO       
      SPIRAL-1.5964          19.5707       NO       
      SPIRAL-1.5965          10.7285       NO       
      SPIRAL-1.5966          10.7978       NO       
      SPIRAL-1.5967          11.1278       NO       
      SPIRAL-1.5973          35.8928       NO       
      SPIRAL-1.6094          11.4186       NO       
      SPIRAL-1.6095          19.1352       NO       
      SPIRAL-1.6106          26.4488       NO       
      SPIRAL-1.6119          34.1559       NO       
      SPIRAL-1.6120          44.1962       NO       
      SPIRAL-1.6122          11.1772       NO       
      SPIRAL-1.6123          25.1338       NO       
      SPIRAL-1.6159          25.0932       NO       
      SPIRAL-1.6192          10.8519       NO       
      SPIRAL-1.6193          22.2047       NO       
      SPIRAL-1.6194           44.326       NO       
      SPIRAL-1.6195           39.129       NO       
      SPIRAL-1.6196          33.5849       NO       
      SPIRAL-1.6197          26.1059       NO       
      SPIRAL-1.6198          12.3507       NO       
      SPIRAL-1.6201           39.502       NO       
      SPIRAL-1.6202          31.4684       NO       
      SPIRAL-1.6207           43.607       NO       
      SPIRAL-1.6208          38.7815       NO       
      SPIRAL-1.6236          39.3427       NO       
      SPIRAL-1.6237          10.9087       NO       
      SPIRAL-1.6238          27.7388       NO       
      SPIRAL-1.6247          19.8505       NO       
      SPIRAL-1.6248          19.6277       NO       
      SPIRAL-1.6251          23.8723       NO       
      SPIRAL-1.6253          43.1739       NO       
      SPIRAL-1.6254          34.9202       NO       
      SPIRAL-1.6255          10.7315       NO       
      SPIRAL-1.6258          43.2364       NO       
      SPIRAL-1.6259          39.8429       NO       
      SPIRAL-1.6260          34.1517       NO       
      SPIRAL-1.6279          14.8742       NO       
      SPIRAL-1.6292           20.994       NO       
      SPIRAL-1.6335          13.0241       NO       
      SPIRAL-1.6336          10.8962       NO       
      SPIRAL-1.6337          10.9703       NO       
      SPIRAL-1.6338           11.065       NO       
      SPIRAL-1.6339          20.0321       NO       
      SPIRAL-1.6340          10.5604       NO       
      SPIRAL-1.6341          10.5691       NO       
      SPIRAL-1.6342          11.4663       NO       
      SPIRAL-1.6343          11.2256       NO       
      SPIRAL-1.6344          14.3466       NO       
      SPIRAL-1.6345          30.5604       NO       
      SPIRAL-1.6382          30.0546       NO       
      SPIRAL-1.6406          23.6714       NO       
      SPIRAL-1.6443          41.5724       NO       
      SPIRAL-1.6467           11.179       NO       
      SPIRAL-1.6468          16.5591       NO       
      SPIRAL-1.6469          12.6047       NO       
      SPIRAL-1.6470          19.8421       NO       
      SPIRAL-1.6471           19.834       NO       
      SPIRAL-1.6472          20.6516       NO       
      SPIRAL-1.6473          14.4315       NO       
      SPIRAL-1.6474          35.0301       NO       
      SPIRAL-1.6475          24.5781       NO       
      SPIRAL-1.6476          21.5193       NO       
      SPIRAL-1.6477          23.0139       NO       
      SPIRAL-1.6478          25.1483       NO       
      SPIRAL-1.6479          19.8557       NO       
      SPIRAL-1.6480          19.5724       NO       
      SPIRAL-1.6481          20.8133       NO       
      SPIRAL-1.6482          30.1115       NO       
      SPIRAL-1.6483          18.9518       NO       
      SPIRAL-1.6484          11.0855       NO       
      SPIRAL-1.6485          30.5498       NO       
      SPIRAL-1.6551          31.1924       NO       
      SPIRAL-1.6552          41.2067       NO       
      SPIRAL-1.6553          22.0485       NO       
      SPIRAL-1.6556          31.4824       NO       
      SPIRAL-1.6572           28.668       NO       
      SPIRAL-1.6573          19.7438       NO       
      SPIRAL-1.6574          18.7068       NO       
      SPIRAL-1.6575          22.8547       NO       
      SPIRAL-1.6579          42.4999       NO       
      SPIRAL-1.6590            17.18       NO       
      SPIRAL-1.6610          36.4788       NO       
      SPIRAL-1.6615          31.5973       NO       
      SPIRAL-1.6617          24.2258       NO       
      SPIRAL-1.6618           24.375       NO       
      SPIRAL-1.6619           30.432       NO       
      SPIRAL-1.6620          34.7093       NO       
      SPIRAL-1.6657          33.3643       NO       
      SPIRAL-1.6682          44.3423       NO       
      SPIRAL-1.6698          43.9668       NO       
      SPIRAL-1.6699          26.0409       NO       
      SPIRAL-1.6714          32.5534       NO       
      SPIRAL-1.6715          34.2256       NO       
      SPIRAL-1.6720          27.4291       NO       
      SPIRAL-1.6721          24.9382       NO       
      SPIRAL-1.6724          31.2492       NO       
      SPIRAL-1.6730          25.9119       NO       
      SPIRAL-1.6784          43.6406       NO       
      SPIRAL-1.6785          35.8859       NO       
      SPIRAL-1.6789          30.6031       NO       
      SPIRAL-1.6790          33.5728       NO       
      SPIRAL-1.6793          23.2436       NO       
      SPIRAL-1.6812          34.6433       NO       
      SPIRAL-1.6813          40.5835       NO       
      SPIRAL-1.6823          25.6587       NO       
      SPIRAL-1.6843          30.7303       NO       
      SPIRAL-1.6844          33.5932       NO       
      SPIRAL-1.6846          35.1282       NO       
      SPIRAL-1.6847          38.0957       NO       
      SPIRAL-1.6855          44.9562       NO       
      SPIRAL-1.6867          40.8363       NO       
      SPIRAL-1.6884          40.4726       NO       
      SPIRAL-1.6886          37.8814       NO       
      SPIRAL-1.6909           40.022       NO       
      SPIRAL-1.6910          44.5861       NO       
      SPIRAL-1.6911          29.4439       NO       
      SPIRAL-1.6912          39.3075       NO       
      SPIRAL-1.6915          43.3247       NO       
      SPIRAL-1.6918          37.7789       NO       
      SPIRAL-1.6923          44.6333       NO       
      SPIRAL-1.6924          40.0319       NO       
      SPIRAL-1.6925          31.4801       NO       
      SPIRAL-1.6934          31.0446       NO       
      SPIRAL-1.6936          44.7474       NO       
      SPIRAL-1.6961          42.1056       NO       
      SPIRAL-1.6963          40.0575       NO       
      SPIRAL-1.6979          31.8116       NO       
      SPIRAL-1.6984          44.4242       NO       
      SPIRAL-1.6986          37.4352       NO       
      SPIRAL-1.6988          36.1753       NO       
      SPIRAL-1.6992          42.0641       NO       
      SPIRAL-1.6998          40.1978       NO       
      SPIRAL-1.7023          31.7485       NO       
      SPIRAL-1.7030          21.5331       NO       
      SPIRAL-1.7031          22.9213       NO       
      SPIRAL-1.7035          35.9739       NO       
      SPIRAL-1.7042          32.3283       NO       
      SPIRAL-1.7043            43.49       NO       
      SPIRAL-1.7044          39.9877       NO       
      SPIRAL-1.7077          20.9262       NO       
      SPIRAL-1.7078          38.1287       NO       
      SPIRAL-1.7084          42.0122       NO       
      SPIRAL-1.7085          37.5078       NO       
      SPIRAL-1.7089          35.1328       NO       
      SPIRAL-1.7093          25.1621       NO       
      SPIRAL-1.7095          25.5297       NO       
      SPIRAL-1.7096          41.9354       NO       
      SPIRAL-1.7100          42.2171       NO       
      SPIRAL-1.7101          37.0917       NO       
      SPIRAL-1.7109          40.4376       NO       
      SPIRAL-1.7118          32.2088       NO       
      SPIRAL-1.7123          40.3837       NO       
      SPIRAL-1.7128          35.6037       NO       
      SPIRAL-1.7137          28.4481       NO       
      SPIRAL-1.7138          39.5286       NO       
      SPIRAL-1.7147          33.3004       NO       
      SPIRAL-1.7150          26.9286       NO       
      SPIRAL-1.7157          31.3818       NO       
      SPIRAL-1.7162          40.5703       NO       
      SPIRAL-1.7166          42.0188       NO       
      SPIRAL-1.7170          35.3932       NO       
      SPIRAL-1.7187          18.8736       NO       
      SPIRAL-1.7205           42.495       NO       
      SPIRAL-1.7210           29.728       NO       
      SPIRAL-1.7216          38.2561       NO       
      SPIRAL-1.7219          43.8468       NO       
      SPIRAL-1.7227          32.6878       NO       
      SPIRAL-1.7234          44.8113       NO       
      SPIRAL-1.7236          42.8167       NO       
      SPIRAL-1.7244          24.1071       NO       
      SPIRAL-1.8869          44.0889       NO       
     SPIRAL-1.10452          35.7942       NO       
     SPIRAL-1.10453          43.3551       NO       
     SPIRAL-1.10454          42.5306       NO       
     SPIRAL-1.10455          12.4895       NO       
     SPIRAL-1.10456          11.1001       NO       
     SPIRAL-1.10457          17.1286       NO       
     SPIRAL-1.10458          41.1906       NO       
     SPIRAL-1.10465          10.3554       NO       
     SPIRAL-1.10466          10.2415       NO       
     SPIRAL-1.10467          22.3293       NO       
     SPIRAL-1.10468          42.6379       NO       
     SPIRAL-1.10491           42.871       NO       
     SPIRAL-1.10492            39.51       NO       
     SPIRAL-1.10493          33.1142       NO       
     SPIRAL-1.10507           36.913       NO       
     SPIRAL-1.10508           30.167       NO       
     SPIRAL-1.10509          14.4132       NO       
     SPIRAL-1.10511          14.2279       NO       
     SPIRAL-1.10513          27.7089       NO       
     SPIRAL-1.10514           14.337       NO       
     SPIRAL-1.10515          14.1174       NO       
     SPIRAL-1.10516           36.491       NO       
     SPIRAL-1.10517          23.7747       NO       
     SPIRAL-1.10518          12.3627       NO       
     SPIRAL-1.10519          21.4109       NO       
     SPIRAL-1.10520          11.1578       NO       
     SPIRAL-1.10521          19.8136       NO       
     SPIRAL-1.10522          25.8955       NO       
     SPIRAL-1.10523          26.7187       NO       
     SPIRAL-1.10524          27.4659       NO       
     SPIRAL-1.10525          32.5107       NO       
     SPIRAL-1.10528          38.7262       NO       
     SPIRAL-1.10529          30.5818       NO       
     SPIRAL-1.10530          38.7815       NO       
     SPIRAL-1.10531          10.5237       NO       
     SPIRAL-1.10532          10.5497       NO       
     SPIRAL-1.10533            11.22       NO       
     SPIRAL-1.10534          18.5076       NO       
     SPIRAL-1.10535          11.2126       NO       
     SPIRAL-1.10536          20.5635       NO       
     SPIRAL-1.10537          29.2096       NO       
     SPIRAL-1.10759          34.4989       NO       
     SPIRAL-1.10761          16.9091       NO       
     SPIRAL-1.10808          35.0465       NO       
     SPIRAL-1.10813          32.1736       NO       
     SPIRAL-1.10818          34.8469       NO       
     SPIRAL-1.10819          31.6926       NO       
     SPIRAL-1.10823          32.2306       NO       
     SPIRAL-1.10827          43.4485       NO       
     SPIRAL-1.10831          10.5855       NO       
     SPIRAL-1.10832           24.925       NO       
     SPIRAL-1.10834          21.8855       NO       
     SPIRAL-1.10835          10.3058       NO       
     SPIRAL-1.10836          17.2942       NO       
     SPIRAL-1.10840          10.4013       NO       
     SPIRAL-1.10841          19.6309       NO       
     SPIRAL-1.10842          26.9235       NO       
     SPIRAL-1.10843          21.6443       NO       
     SPIRAL-1.10844          26.4426       NO       
     SPIRAL-1.10845          18.9506       NO       
     SPIRAL-1.10846          42.2168       NO       
     SPIRAL-1.10848          18.4084       NO       
     SPIRAL-1.10849           22.553       NO       
     SPIRAL-1.10850          10.8352       NO       
     SPIRAL-1.10851          18.1619       NO       
     SPIRAL-1.10852          18.0045       NO       
     SPIRAL-1.10853           11.027       NO       
     SPIRAL-1.10854          37.4154       NO       
     SPIRAL-1.10855          42.4332       NO       
     SPIRAL-1.10861          19.7889       NO       
     SPIRAL-1.10868          15.0532       NO       
     SPIRAL-1.10870          36.8077       NO       
     SPIRAL-1.10891          41.0625       NO       
     SPIRAL-1.10893          42.1244       NO       
     SPIRAL-1.11054           32.356       NO       
     SPIRAL-1.11055          14.5641       NO       
     SPIRAL-1.11056          11.1949       NO       
     SPIRAL-1.11057          10.9826       NO       
     SPIRAL-1.11058          10.9745       NO       
     SPIRAL-1.11059          10.8795       NO       
     SPIRAL-1.11060          11.0916       NO       
     SPIRAL-1.11061          10.2465       NO       
     SPIRAL-1.11062          13.7839       NO       
     SPIRAL-1.11063           20.271       NO       
     SPIRAL-1.11100          42.6747       NO       
     SPIRAL-1.11101          38.3654       NO       
     SPIRAL-1.11102           13.028       NO       
     SPIRAL-1.11129          33.1629       NO       
     SPIRAL-1.11162          18.6918       NO       
     SPIRAL-1.11222          11.1112       NO       
     SPIRAL-1.11224          16.9318       NO       
     SPIRAL-1.11225          30.0923       NO       
     SPIRAL-1.11226          28.5255       NO       
     SPIRAL-1.11227          11.0498       NO       
     SPIRAL-1.11228          18.4288       NO       
     SPIRAL-1.11229          11.1086       NO       
     SPIRAL-1.11230          11.0012       NO       
     SPIRAL-1.11231          29.3884       NO       
     SPIRAL-1.11232          18.7762       NO       
     SPIRAL-1.11233          10.9414       NO       
     SPIRAL-1.11234          28.1458       NO       
     SPIRAL-1.11235          17.6918       NO       
     SPIRAL-1.11236          16.9614       NO       
     SPIRAL-1.11237          22.9775       NO       
     SPIRAL-1.11238          31.2821       NO       
     SPIRAL-1.11239          30.6318       NO       
     SPIRAL-1.11240          17.1158       NO       
     SPIRAL-1.11294          34.6279       NO       
     SPIRAL-1.11295            33.77       NO       
     SPIRAL-1.11296          21.8087       NO       
     SPIRAL-1.11298          26.2276       NO       
     SPIRAL-1.11312          20.3768       NO       
     SPIRAL-1.11313          44.6951       NO       
     SPIRAL-1.11316           25.341       NO       
     SPIRAL-1.11320          22.1968       NO       
     SPIRAL-1.11321          23.0908       NO       
     SPIRAL-1.11332          23.7526       NO       
     SPIRAL-1.11333          32.2603       NO       
     SPIRAL-1.11347          39.9913       NO       
     SPIRAL-1.11352          43.6883       NO       
     SPIRAL-1.11354          24.6177       NO       
     SPIRAL-1.11355           24.215       NO       
     SPIRAL-1.11356          35.6924       NO       
     SPIRAL-1.11357          25.8146       NO       
     SPIRAL-1.11358          10.3602       NO       
     SPIRAL-1.11375          24.0351       NO       
     SPIRAL-1.11376          34.1448       NO       
     SPIRAL-1.11387          22.1584       NO       
     SPIRAL-1.11413          44.3323       NO       
     SPIRAL-1.11414          43.5705       NO       
     SPIRAL-1.11425          38.5363       NO       
     SPIRAL-1.11426          27.3325       NO       
     SPIRAL-1.11429          17.1782       NO       
     SPIRAL-1.11432          43.9908       NO       
     SPIRAL-1.11455            22.39       NO       
     SPIRAL-1.11456          18.5526       NO       
     SPIRAL-1.11457          29.1315       NO       
     SPIRAL-1.11471          43.1855       NO       
     SPIRAL-1.11472          44.9285       NO       
     SPIRAL-1.11473          42.7257       NO       
     SPIRAL-1.11494          31.2152       NO       
     SPIRAL-1.11495          38.1851       NO       
     SPIRAL-1.11501          38.7244       NO       
     SPIRAL-1.11502          22.7432       NO       
     SPIRAL-1.11523          38.1914       NO       
     SPIRAL-1.11524          25.9362       NO       
     SPIRAL-1.11526           40.382       NO       
     SPIRAL-1.11527          44.8921       NO       
     SPIRAL-1.11533          37.7717       NO       
     SPIRAL-1.11544          32.5765       NO       
     SPIRAL-1.11545          31.9314       NO       
     SPIRAL-1.11575          30.0453       NO       
     SPIRAL-1.11578          43.2272       NO       
     SPIRAL-1.11579           34.392       NO       
     SPIRAL-1.11580          34.9407       NO       
     SPIRAL-1.11606           44.234       NO       
     SPIRAL-1.11613          43.8455       NO       
     SPIRAL-1.11614           37.653       NO       
     SPIRAL-1.11615          43.6924       NO       
     SPIRAL-1.11619          30.7926       NO       
     SPIRAL-1.11620          40.4861       NO       
     SPIRAL-1.11637          32.4471       NO       
     SPIRAL-1.11652          18.5277       NO       
     SPIRAL-1.11680          35.6431       NO       
     SPIRAL-1.11686          31.5027       NO       
     SPIRAL-1.11691          43.3373       NO       
     SPIRAL-1.11692          37.8357       NO       
     SPIRAL-1.11698            44.65       NO       
     SPIRAL-1.11700          40.7784       NO       
     SPIRAL-1.11711          36.4332       NO       
     SPIRAL-1.11723          37.9874       NO       
     SPIRAL-1.11725          41.5467       NO       
     SPIRAL-1.11733          39.3323       NO       
     SPIRAL-1.11736          43.0789       NO       
     SPIRAL-1.11739           30.273       NO       
     SPIRAL-1.11740          32.5896       NO       
     SPIRAL-1.11744          24.0257       NO       
     SPIRAL-1.11745          29.6532       NO       
     SPIRAL-1.11779          43.4931       NO       
     SPIRAL-1.11785          33.0008       NO       
     SPIRAL-1.11790          40.1167       NO       
     SPIRAL-1.11802          41.3914       NO       
     SPIRAL-1.11804           34.823       NO       
     SPIRAL-1.11807          43.0697       NO       
     SPIRAL-1.11822           42.036       NO       
     SPIRAL-1.11850          40.8709       NO       
     SPIRAL-1.11851          40.0074       NO       
     SPIRAL-1.11871          35.9223       NO       
     SPIRAL-1.11872          43.8337       NO       
     SPIRAL-1.11873          44.6807       NO       
     SPIRAL-1.11874          38.2378       NO       
     SPIRAL-1.11883          44.2484       NO       
     SPIRAL-1.11900            27.28       NO       
     SPIRAL-1.11901          30.6166       NO       
     SPIRAL-1.11903          40.2869       NO       
     SPIRAL-1.11910          37.9669       NO       
     SPIRAL-1.11917          41.7633       NO       
     SPIRAL-1.11922          36.5246       NO       
     SPIRAL-1.11933          31.1241       NO       
     SPIRAL-1.11944          33.8997       NO       
     SPIRAL-1.11958          39.2087       NO       
     SPIRAL-1.11959           43.514       NO       
     SPIRAL-1.11973           29.181       NO       
     SPIRAL-1.11976          35.5922       NO       
     SPIRAL-1.11986          41.2745       NO       
     SPIRAL-1.11988          24.1178       NO       
     SPIRAL-1.11993          39.0458       NO       
     SPIRAL-1.11994          41.1854       NO       
     SPIRAL-1.11995          43.2361       NO       
     SPIRAL-1.13619           44.438       NO       
     SPIRAL-1.13620          42.5933       NO       
     SPIRAL-1.13621          43.5512       NO       
     SPIRAL-1.15211           40.638       NO       
     SPIRAL-1.15212          39.5243       NO       
     SPIRAL-1.15230          17.0832       NO       
     SPIRAL-1.15232          35.3098       NO       
     SPIRAL-1.15233          37.5443       NO       
     SPIRAL-1.15235          39.4331       NO       
     SPIRAL-1.15237          35.4801       NO       
     SPIRAL-1.15238          44.4352       NO       
     SPIRAL-1.15269          27.1325       NO       
     SPIRAL-1.15271          26.8225       NO       
     SPIRAL-1.15272          27.7674       NO       
     SPIRAL-1.15273          28.9508       NO       
     SPIRAL-1.15274          29.8432       NO       
     SPIRAL-1.15275          30.8866       NO       
     SPIRAL-1.15276          32.2171       NO       
     SPIRAL-1.15277          33.7667       NO       
     SPIRAL-1.15279          36.9678       NO       
     SPIRAL-1.15280          38.5688       NO       
     SPIRAL-1.15281          42.2858       NO       
     SPIRAL-1.15282          44.3884       NO       
     SPIRAL-1.15310          44.0166       NO       
     SPIRAL-1.15312          17.6771       NO       
     SPIRAL-1.15313           30.699       NO       
     SPIRAL-1.15314          37.6237       NO       
     SPIRAL-1.15315          16.2431       NO       
     SPIRAL-1.15316          15.9861       NO       
     SPIRAL-1.15317           15.976       NO       
     SPIRAL-1.15318          15.9962       NO       
     SPIRAL-1.15319          16.0398       NO       
     SPIRAL-1.15320           16.413       NO       
     SPIRAL-1.15321          16.1042       NO       
     SPIRAL-1.15322          16.0609       NO       
     SPIRAL-1.15323          16.0536       NO       
     SPIRAL-1.15324          21.1536       NO       
     SPIRAL-1.15325          33.7822       NO       
     SPIRAL-1.15326          16.0983       NO       
     SPIRAL-1.15351          25.4282       NO       
     SPIRAL-1.15353           26.021       NO       
     SPIRAL-1.15367          16.4131       NO       
     SPIRAL-1.15392          35.5368       NO       
     SPIRAL-1.15397          40.3593       NO       
     SPIRAL-1.15413          15.9874       NO       
     SPIRAL-1.15414          39.3547       NO       
     SPIRAL-1.15415           16.025       NO       
     SPIRAL-1.15417          43.2205       NO       
     SPIRAL-1.15419          17.4422       NO       
     SPIRAL-1.15420           16.019       NO       
     SPIRAL-1.15421          44.5756       NO       
     SPIRAL-1.15422          35.8689       NO       
     SPIRAL-1.15423          42.1107       NO       
     SPIRAL-1.15424          16.1746       NO       
     SPIRAL-1.15426          40.9469       NO       
     SPIRAL-1.15427          37.3985       NO       
     SPIRAL-1.15428          40.8634       NO       
     SPIRAL-1.15430          35.5933       NO       
     SPIRAL-1.15431          35.7388       NO       
     SPIRAL-1.15432          39.3755       NO       
     SPIRAL-1.15433          42.6443       NO       
     SPIRAL-1.15435          34.4125       NO       
     SPIRAL-1.15436          16.0758       NO       
     SPIRAL-1.15442          35.3451       NO       
     SPIRAL-1.15444          39.9756       NO       
     SPIRAL-1.15447          43.9979       NO       
     SPIRAL-1.15448          38.6083       NO       
     SPIRAL-1.15501          42.7451       NO       
     SPIRAL-1.15533          25.5913       NO       
     SPIRAL-1.15550          36.3226       NO       
     SPIRAL-1.15551          35.6316       NO       
     SPIRAL-1.15552          39.4846       NO       
     SPIRAL-1.15553          34.3193       NO       
     SPIRAL-1.15554          35.3735       NO       
     SPIRAL-1.15555          34.8487       NO       
     SPIRAL-1.15557          39.8174       NO       
     SPIRAL-1.15558          42.5589       NO       
     SPIRAL-1.15560          42.6432       NO       
     SPIRAL-1.15561          38.3897       NO       
     SPIRAL-1.15562          44.2681       NO       
     SPIRAL-1.15563          40.0821       NO       
     SPIRAL-1.15565          39.5542       NO       
     SPIRAL-1.15572          44.5114       NO       
     SPIRAL-1.15573          44.1035       NO       
     SPIRAL-1.15574          44.0621       NO       
     SPIRAL-1.15575          39.6823       NO       
     SPIRAL-1.15577           43.827       NO       
     SPIRAL-1.15578          41.2248       NO       
     SPIRAL-1.15605           44.827       NO       
     SPIRAL-1.15623          42.2301       NO       
     SPIRAL-1.15654          37.2615       NO       
     SPIRAL-1.15660          30.5133       NO       
     SPIRAL-1.15661           43.107       NO       
     SPIRAL-1.15662          43.1911       NO       
     SPIRAL-1.15663          42.9631       NO       
     SPIRAL-1.15664          42.6742       NO       
     SPIRAL-1.15665          40.5091       NO       
     SPIRAL-1.15666          38.1852       NO       
     SPIRAL-1.15667          37.7104       NO       
     SPIRAL-1.15668          37.2287       NO       
     SPIRAL-1.15669          36.7415       NO       
     SPIRAL-1.15670            36.25       NO       
     SPIRAL-1.15671          35.7557       NO       
     SPIRAL-1.15672          35.2596       NO       
     SPIRAL-1.15673           34.763       NO       
     SPIRAL-1.15674          34.2667       NO       
     SPIRAL-1.15675          33.7717       NO       
     SPIRAL-1.15676          33.2795       NO       
     SPIRAL-1.15677          32.7903       NO       
     SPIRAL-1.15678          35.0205       NO       
     SPIRAL-1.15679          37.4318       NO       
     SPIRAL-1.15680          37.1017       NO       
     SPIRAL-1.15681          36.7215       NO       
     SPIRAL-1.15682          36.3001       NO       
     SPIRAL-1.15683          35.8568       NO       
     SPIRAL-1.15684          35.4076       NO       
     SPIRAL-1.15685          34.9687       NO       
     SPIRAL-1.15686          34.2746       NO       
     SPIRAL-1.15687          20.0399       NO       
     SPIRAL-1.16653          27.6308       NO       
     SPIRAL-1.16654          29.3487       NO       
     SPIRAL-1.16656          30.7819       NO       
     SPIRAL-1.16657          32.3336       NO       
     SPIRAL-1.16658          34.0175       NO       
     SPIRAL-1.16659          35.8508       NO       
     SPIRAL-1.16660          37.8521       NO       
     SPIRAL-1.16661          42.4204       NO       
     SPIRAL-1.16687          40.2293       NO       
     SPIRAL-1.16688          17.5955       NO       
     SPIRAL-1.16689          34.2153       NO       
     SPIRAL-1.16691          19.0133       NO       
     SPIRAL-1.16692          17.8496       NO       
     SPIRAL-1.16693          17.7741       NO       
     SPIRAL-1.16694          44.7274       NO       
     SPIRAL-1.16695          17.6806       NO       
     SPIRAL-1.16696          17.6551       NO       
     SPIRAL-1.16697          17.6333       NO       
     SPIRAL-1.16698          17.6087       NO       
     SPIRAL-1.16699          17.5663       NO       
     SPIRAL-1.16700          17.5785       NO       
     SPIRAL-1.16702          17.7521       NO       
     SPIRAL-1.16724          41.9455       NO       
     SPIRAL-1.16725          42.2923       NO       
     SPIRAL-1.16726          43.0759       NO       
     SPIRAL-1.16727          43.4592       NO       
     SPIRAL-1.16728            43.86       NO       
     SPIRAL-1.16730          44.2826       NO       
     SPIRAL-1.16759          17.7075       NO       
     SPIRAL-1.16760          40.0386       NO       
     SPIRAL-1.16764          25.7298       NO       
     SPIRAL-1.16795          17.4501       NO       
     SPIRAL-1.16802          17.7423       NO       
     SPIRAL-1.16805          42.6952       NO       
     SPIRAL-1.16808          39.5623       NO       
     SPIRAL-1.16809          17.2763       NO       
     SPIRAL-1.16839          39.8177       NO       
     SPIRAL-1.16846          25.5258       NO       
     SPIRAL-1.16850          26.8355       NO       
     SPIRAL-1.16851          37.3407       NO       
     SPIRAL-1.16852            40.68       NO       
     SPIRAL-1.16853          40.4932       NO       
     SPIRAL-1.16854          40.2679       NO       
     SPIRAL-1.16855          40.0105       NO       
     SPIRAL-1.16856           39.725       NO       
     SPIRAL-1.16857          39.4138       NO       
     SPIRAL-1.16858          39.0808       NO       
     SPIRAL-1.16859          38.7309       NO       
     SPIRAL-1.16860          38.3702       NO       
     SPIRAL-1.16861          37.9939       NO       
     SPIRAL-1.16862          37.6079       NO       
     SPIRAL-1.16863          37.2152       NO       
     SPIRAL-1.16864          36.8111       NO       
     SPIRAL-1.16865          36.4013       NO       
     SPIRAL-1.16866          35.9743       NO       
     SPIRAL-1.16867          33.0278       NO       
     SPIRAL-1.16868          30.1715       NO       
     SPIRAL-1.16869          27.5699       NO       
     SPIRAL-1.16870          17.9639       NO       
     SPIRAL-1.17338           43.792       NO       
     SPIRAL-1.17349          22.7307       NO       
     SPIRAL-1.17350          27.4215       NO       
     SPIRAL-1.17351           30.132       NO       
     SPIRAL-1.17352          32.5695       NO       
     SPIRAL-1.17353          35.0746       NO       
     SPIRAL-1.17354           38.856       NO       
     SPIRAL-1.17382          29.2603       NO       
     SPIRAL-1.17397          25.5506       NO       
     SPIRAL-1.17398          39.7045       NO       
     SPIRAL-1.17582           23.353       NO       
     SPIRAL-1.17584          27.9517       NO       
     SPIRAL-1.17586          29.5222       NO       
     SPIRAL-1.17588          39.4006       NO       
     SPIRAL-1.17604          44.6882       NO       
     SPIRAL-1.17606          17.3763       NO       
     SPIRAL-1.17607          32.5029       NO       
     SPIRAL-1.17609          17.2802       NO       
     SPIRAL-1.17610          44.5776       NO       
     SPIRAL-1.17611          41.3404       NO       
     SPIRAL-1.17612          39.9919       NO       
     SPIRAL-1.17613          16.6576       NO       
     SPIRAL-1.17614          38.5779       NO       
     SPIRAL-1.17615          16.5616       NO       
     SPIRAL-1.17644          37.5481       NO       
     SPIRAL-1.17645          16.7706       NO       
     SPIRAL-1.17646          40.5458       NO       
     SPIRAL-1.17647          17.9308       NO       
     SPIRAL-1.17648           17.167       NO       
     SPIRAL-1.17661          31.4967       NO       
     SPIRAL-1.17664          42.6521       NO       
     SPIRAL-1.17665          33.8802       NO       
     SPIRAL-1.17691          23.8731       NO       
     SPIRAL-1.17695          40.5258       NO       
     SPIRAL-1.17696          38.7883       NO       
     SPIRAL-1.17697           16.672       NO       
     SPIRAL-1.17699          36.4962       NO       
     SPIRAL-1.17703          16.9253       NO       
     SPIRAL-1.17705           37.192       NO       
     SPIRAL-1.17706          16.3183       NO       
     SPIRAL-1.17707          41.7382       NO       
     SPIRAL-1.17708            17.52       NO       
     SPIRAL-1.17725          18.3929       NO       
     SPIRAL-1.17726          30.9213       NO       
     SPIRAL-1.17727          35.6913       NO       
     SPIRAL-1.17728          36.7653       NO       
     SPIRAL-1.17729          37.6131       NO       
     SPIRAL-1.17730          38.2635       NO       
     SPIRAL-1.17731          38.9084       NO       
     SPIRAL-1.17732           39.555       NO       
     SPIRAL-1.17733          40.2011       NO       
     SPIRAL-1.17734          40.8412       NO       
     SPIRAL-1.17735           41.474       NO       
     SPIRAL-1.17736          40.0473       NO       
     SPIRAL-1.17737          38.6772       NO       
     SPIRAL-1.17738          41.3309       NO       
     SPIRAL-1.17739          39.4079       NO       
     SPIRAL-1.17740          27.5118       NO       
     SPIRAL-1.18089          29.4636       NO       
     SPIRAL-1.18090          30.1409       NO       
     SPIRAL-1.18091          28.7631       NO       
     SPIRAL-1.18102          32.6892       NO       
     SPIRAL-1.18103          30.9009       NO       
     SPIRAL-1.18108          34.6566       NO       
     SPIRAL-1.18109          38.8269       NO       
     SPIRAL-1.18110          41.1136       NO       
     SPIRAL-1.18113          43.6841       NO       
     SPIRAL-1.18114          42.3552       NO       
     SPIRAL-1.18167          37.6015       NO       
     SPIRAL-1.18168          17.0073       NO       
     SPIRAL-1.18169          17.0839       NO       
     SPIRAL-1.18171          17.0678       NO       
     SPIRAL-1.18192          17.0196       NO       
     SPIRAL-1.18193          37.1624       NO       
     SPIRAL-1.18196          41.6562       NO       
     SPIRAL-1.18197            17.23       NO       
     SPIRAL-1.18198          37.4939       NO       
     SPIRAL-1.18202           42.187       NO       
     SPIRAL-1.18203          44.1221       NO       
     SPIRAL-1.18214           37.198       NO       
     SPIRAL-1.18230          25.7014       NO       
     SPIRAL-1.18250          17.1618       NO       
     SPIRAL-1.18251          17.0121       NO       
     SPIRAL-1.18252          38.2393       NO       
     SPIRAL-1.18253          17.1431       NO       
     SPIRAL-1.18254          17.0137       NO       
     SPIRAL-1.18255          17.0349       NO       
     SPIRAL-1.18257          17.2112       NO       
     SPIRAL-1.18258          40.8404       NO       
     SPIRAL-1.18259          17.2121       NO       
     SPIRAL-1.18261          17.6354       NO       
     SPIRAL-1.18262          42.7246       NO       
     SPIRAL-1.18265          17.0395       NO       
     SPIRAL-1.18270          41.6504       NO       
     SPIRAL-1.18294          36.8769       NO       
     SPIRAL-1.18314          26.8725       NO       
     SPIRAL-1.18315           25.674       NO       
     SPIRAL-1.18331          40.5703       NO       
     SPIRAL-1.18333          18.4318       NO       
     SPIRAL-1.18339          17.0389       NO       
     SPIRAL-1.18358          26.1851       NO       
     SPIRAL-1.18359          27.7405       NO       
     SPIRAL-1.18360           31.794       NO       
     SPIRAL-1.18361          33.5844       NO       
     SPIRAL-1.18362          35.8649       NO       
     SPIRAL-1.18363          39.9652       NO       
     SPIRAL-1.18385          18.6568       NO       
     SPIRAL-1.18386          26.3677       NO       
     SPIRAL-1.18387          17.5444       NO       
     SPIRAL-1.18388          17.0744       NO       
     SPIRAL-1.18389          37.6357       NO       
     SPIRAL-1.18390           17.035       NO       
     SPIRAL-1.18391          17.0785       NO       
     SPIRAL-1.18392          17.0266       NO       
     SPIRAL-1.18393          17.3202       NO       
     SPIRAL-1.18450          42.0821       NO       
     SPIRAL-1.18451          37.2414       NO       
     SPIRAL-1.18452          38.3378       NO       
     SPIRAL-1.18453          36.4612       NO       
     SPIRAL-1.18454          42.9918       NO       
     SPIRAL-1.18455          37.2882       NO       
     SPIRAL-1.18456          39.1725       NO       
     SPIRAL-1.18457          41.0854       NO       
     SPIRAL-1.18458          18.2129       NO       
     SPIRAL-1.18459          16.6679       NO       
     SPIRAL-1.18460          16.5333       NO       
     SPIRAL-1.18462          37.4866       NO       
     SPIRAL-1.18463          38.8666       NO       
     SPIRAL-1.18464          38.2604       NO       
     SPIRAL-1.18465          37.4844       NO       
     SPIRAL-1.18471            25.22       NO       
     SPIRAL-1.18540          38.3595       NO       
     SPIRAL-1.18542          41.6109       NO       
     SPIRAL-1.18549          43.1458       NO       
     SPIRAL-1.18603           42.525       NO       
     SPIRAL-1.18620          36.2824       NO       
     SPIRAL-1.18626          41.1732       NO       
     SPIRAL-1.18627          41.1108       NO       
     SPIRAL-1.18641           42.758       NO       
     SPIRAL-1.18671          43.4191       NO       
     SPIRAL-1.18686          17.0272       NO       
     SPIRAL-1.18691          41.6014       NO       
     SPIRAL-1.18692          39.8598       NO       
     SPIRAL-1.18693          43.4643       NO       
     SPIRAL-1.18695           40.788       NO       
     SPIRAL-1.18697          44.8492       NO       
     SPIRAL-1.18698          39.9119       NO       
     SPIRAL-1.18699          42.5825       NO       
     SPIRAL-1.18706          42.5348       NO       
     SPIRAL-1.18707          26.0136       NO       
     SPIRAL-1.18708          35.6455       NO       
     SPIRAL-1.18709          38.5448       NO       
     SPIRAL-1.18710          38.3164       NO       
     SPIRAL-1.18711          38.0804       NO       
     SPIRAL-1.18712          39.0562       NO       
     SPIRAL-1.18713          40.0369       NO       
     SPIRAL-1.18714          38.6516       NO       
     SPIRAL-1.18715          37.0697       NO       
     SPIRAL-1.18716          36.8024       NO       
     SPIRAL-1.18717           38.056       NO       
     SPIRAL-1.18718          39.2475       NO       
     SPIRAL-1.18719          39.0064       NO       
     SPIRAL-1.18720          37.2518       NO       
     SPIRAL-1.18721          35.4007       NO       
     SPIRAL-1.18722            35.11       NO       
     SPIRAL-1.18723           34.817       NO       
     SPIRAL-1.18724          36.4041       NO       
     SPIRAL-1.18725          37.9967       NO       
     SPIRAL-1.18726          37.8255       NO       
     SPIRAL-1.18727          37.6629       NO       
     SPIRAL-1.18728           37.475       NO       
     SPIRAL-1.18729          37.2618       NO       
     SPIRAL-1.18730          37.0488       NO       
     SPIRAL-1.18731          36.8212       NO       
     SPIRAL-1.18732          36.5234       NO       
     SPIRAL-1.18733          33.9945       NO       
     SPIRAL-1.18734          31.5265       NO       
     SPIRAL-1.18735           33.474       NO       
     SPIRAL-1.18736          35.5291       NO       
     SPIRAL-1.18737          32.9266       NO       
     SPIRAL-1.18738          32.7667       NO       
     SPIRAL-1.18739          35.0205       NO       
     SPIRAL-1.18740          34.6813       NO       
     SPIRAL-1.18741          34.1871       NO       
     SPIRAL-1.18742          33.6895       NO       
     SPIRAL-1.18743          20.3068       NO       
  
  
  *step, name=Step-1, nlgeom=YES
  *step, name=Step-1, nlgeom=YES
  *output, field, variable=PRESELECT
  *output, history, variable=PRESELECT
  *step, name=Step-1, nlgeom=YES
  *step, name=Step-1, nlgeom=YES
  *static
  *boundary
  *dsload
  *output, field, variable=PRESELECT
  *output, history, variable=PRESELECT
  *endstep
  *step, name=Step-1, nlgeom=YES
  *static
  *boundary
  *endstep

 ***WARNING: Boundary conditions are specified on inactive dof 4 at 208 nodes. 
             The nodes have been identified in node set WarnNodeBCInactiveDof4.

 ***WARNING: Boundary conditions are specified on inactive dof 5 at 208 nodes. 
             The nodes have been identified in node set WarnNodeBCInactiveDof5.

 ***WARNING: Boundary conditions are specified on inactive dof 6 at 208 nodes. 
             The nodes have been identified in node set WarnNodeBCInactiveDof6.

     - (RAMP) OR (STEP) - INDICATE USE OF DEFAULT AMPLITUDES ASSOCIATED WITH THE STEP



                            P R O B L E M   S I Z E


          NUMBER OF ELEMENTS IS                                 20093
          NUMBER OF NODES IS                                    30258
          NUMBER OF NODES DEFINED BY THE USER                   30258
          TOTAL NUMBER OF VARIABLES IN THE MODEL                90774
          (DEGREES OF FREEDOM PLUS MAX NO. OF ANY LAGRANGE MULTIPLIER
           VARIABLES. INCLUDE *PRINT,SOLVE=YES TO GET THE ACTUAL NUMBER.)



                              END OF USER INPUT PROCESSING



     JOB TIME SUMMARY
       USER TIME (SEC)      =      3.4    
       SYSTEM TIME (SEC)    =     0.40    
       TOTAL CPU TIME (SEC) =      3.8    
       WALLCLOCK TIME (SEC) =            1
1

   Abaqus 2025                                  Date 22-Feb-2026   Time 03:52:51
   For use by UNIVERSITAET STUTTGART under license from Dassault Systemes or its subsidiary.

                                                                                               STEP    1  INCREMENT    1
                                                                                          TIME COMPLETED IN THIS STEP   0.00    


                        S T E P       1     S T A T I C   A N A L Y S I S


                                                                                          

     AUTOMATIC TIME CONTROL WITH -
          A SUGGESTED INITIAL TIME INCREMENT OF                 1.00    
          AND A TOTAL TIME PERIOD OF                            1.00    
          THE MINIMUM TIME INCREMENT ALLOWED IS                1.000E-05
          THE MAXIMUM TIME INCREMENT ALLOWED IS                 1.00    

     LINEAR EQUATION SOLVER TYPE         DIRECT SPARSE

          LARGE DISPLACEMENT THEORY WILL BE USED
  
                   M E M O R Y   E S T I M A T E
  
 PROCESS      FLOATING PT       MINIMUM MEMORY        MEMORY TO
              OPERATIONS           REQUIRED          MINIMIZE I/O
             PER ITERATION           (MB)               (MB)
  
     1          5.92E+09               60                283
  
 NOTE:
      (1) SINCE ABAQUS DOES NOT PRE-ALLOCATE MEMORY AND ONLY ALLOCATES MEMORY AS NEEDED DURING THE ANALYSIS,
          THE MEMORY REQUIREMENT PRINTED HERE CAN ONLY BE VIEWED AS A GENERAL GUIDELINE BASED ON THE BEST
          KNOWLEDGE AVAILABLE AT THE BEGINNING OF A STEP BEFORE THE SOLUTION PROCESS HAS BEGUN.
      (2) THE ESTIMATE IS NORMALLY UPDATED AT THE BEGINNING OF EVERY STEP. IT IS THE MAXIMUM VALUE OF THE
          ESTIMATE FROM THE CURRENT STEP TO THE LAST STEP OF THE ANALYSIS, WITH UNSYMMETRIC SOLUTION TAKEN
          INTO ACCOUNT IF APPLICABLE. 
      (3) SINCE THE ESTIMATE IS BASED ON THE ACTIVE DEGREES OF FREEDOM IN THE FIRST ITERATION OF THE 
          CURRENT STEP, THE MEMORY ESTIMATE MIGHT BE SIGNIFICANTLY DIFFERENT THAN ACTUAL USAGE FOR 
          PROBLEMS WITH SUBSTANTIAL CHANGES IN ACTIVE DEGREES OF FREEDOM BETWEEN STEPS (OR EVEN WITHIN
          THE SAME STEP). EXAMPLES ARE: PROBLEMS WITH SIGNIFICANT CONTACT CHANGES, PROBLEMS WITH MODEL
          CHANGE, PROBLEMS WITH BOTH STATIC STEP AND STEADY STATE DYNAMIC PROCEDURES WHERE ACOUSTIC 
          ELEMENTS WILL ONLY BE ACTIVATED IN THE STEADY STATE DYNAMIC STEPS.
      (4) FOR MULTI-PROCESS EXECUTION, THE ESTIMATED VALUE OF FLOATING POINT OPERATIONS FOR EACH PROCESS
          IS BASED ON AN INITIAL SCHEDULING OF OPERATIONS AND MIGHT NOT REFLECT THE ACTUAL FLOATING 
          POINT OPERATIONS COMPLETED ON EACH PROCESS. OPERATIONS ARE DYNAMICALLY BALANCED DURING EXECUTION, 
          SO THE ACTUAL BALANCE OF OPERATIONS BETWEEN PROCESSES IS EXPECTED TO BE BETTER THAN THE ESTIMATE
          PRINTED HERE.
      (5) THE UPPER LIMIT OF MEMORY THAT CAN BE ALLOCATED BY ABAQUS WILL IN GENERAL DEPEND ON THE VALUE OF
          THE "MEMORY" PARAMETER AND THE AMOUNT OF PHYSICAL MEMORY AVAILABLE ON THE MACHINE. PLEASE SEE
          THE "ABAQUS ANALYSIS USER'S MANUAL" FOR MORE DETAILS. THE ACTUAL USAGE OF MEMORY AND OF DISK
          SPACE FOR SCRATCH DATA WILL DEPEND ON THIS UPPER LIMIT AS WELL AS THE MEMORY REQUIRED TO MINIMIZE
          I/O. IF THE MEMORY UPPER LIMIT IS GREATER THAN THE MEMORY REQUIRED TO MINIMIZE I/O, THEN THE ACTUAL
          MEMORY USAGE WILL BE CLOSE TO THE ESTIMATED "MEMORY TO MINIMIZE I/O" VALUE, AND THE SCRATCH DISK
          USAGE WILL BE CLOSE-TO-ZERO; OTHERWISE, THE ACTUAL MEMORY USED WILL BE CLOSE TO THE PREVIOUSLY
          MENTIONED MEMORY LIMIT, AND THE SCRATCH DISK USAGE WILL BE ROUGHLY PROPORTIONAL TO THE DIFFERENCE
          BETWEEN THE ESTIMATED "MEMORY TO MINIMIZE I/O" AND THE MEMORY UPPER LIMIT. HOWEVER ACCURATE
          ESTIMATE OF THE SCRATCH DISK SPACE IS NOT POSSIBLE.
      (6) USING "*RESTART, WRITE" CAN GENERATE A LARGE AMOUNT OF DATA WRITTEN IN THE WORK DIRECTORY.


          THE ANALYSIS HAS BEEN COMPLETED



                              ANALYSIS COMPLETE
                              WITH      4 WARNING MESSAGES ON THE DAT FILE
                              AND   90115 WARNING MESSAGES ON THE MSG FILE
                                    90042 WARNINGS ARE FOR NUMERICAL PROBLEMS
                                       68 WARNINGS ARE FOR NEGATIVE EIGENVALUES



     JOB TIME SUMMARY
       USER TIME (SEC)      =     2.53E+03
       SYSTEM TIME (SEC)    =     2.29E+02
       TOTAL CPU TIME (SEC) =     2.76E+03
       WALLCLOCK TIME (SEC) =          529
