 Abaqus/Standard 2025                  DATE 22-Feb-2026 TIME 01:09:12
 SUMMARY OF JOB INFORMATION:
 STEP  INC ATT SEVERE EQUIL TOTAL  TOTAL      STEP       INC OF       DOF    IF
               DISCON ITERS ITERS  TIME/    TIME/LPF    TIME/LPF    MONITOR RIKS
               ITERS               FREQ
   1     1   1     0     3     3  0.00100    0.00100    0.001000  
   1     2   1     0     2     2  0.00200    0.00200    0.001000  
   1     3   1     0     2     2  0.00350    0.00350    0.001500  
   1     4   1     0     2     2  0.00575    0.00575    0.002250  
   1     5   1     0     2     2  0.00913    0.00913    0.003375  
   1     6   1     0     3     3  0.0142     0.0142     0.005063  
   1     7   1     0     3     3  0.0218     0.0218     0.007594  
   1     8   1     0     4     4  0.0332     0.0332     0.01139   
   1     9   1     0     4     4  0.0503     0.0503     0.01709   
   1    10   1     0     4     4  0.0759     0.0759     0.02563   
   1    11   1     0     5     5  0.114      0.114      0.03844   
   1    12   1     0    10    10  0.153      0.153      0.03844   
   1    13   1     0     8     8  0.191      0.191      0.03844   
   1    14   1     0     8     8  0.230      0.230      0.03844   
   1    15   1     0     9     9  0.268      0.268      0.03844   
   1    16   1     0     9     9  0.307      0.307      0.03844   
   1    17   1     0    10    10  0.345      0.345      0.03844   
   1    18   1U    0     4     4  0.345      0.345      0.03844   
   1    18   2     0     5     5  0.355      0.355      0.009611  
   1    19   1     0     4     4  0.364      0.364      0.009611  
   1    20   1     0     4     4  0.374      0.374      0.009611  
   1    21   1     0    10    10  0.388      0.388      0.01442   
   1    22   1U    0     4     4  0.388      0.388      0.01442   
   1    22   2     0     3     3  0.392      0.392      0.003604  
   1    23   1     0     3     3  0.395      0.395      0.003604  
   1    24   1     0     4     4  0.401      0.401      0.005406  
   1    25   1U    0     4     4  0.401      0.401      0.008109  
   1    25   2     0     4     4  0.403      0.403      0.002027  
   1    26   1     0    10    10  0.406      0.406      0.003041  
   1    27   1U    0     4     4  0.406      0.406      0.003041  
   1    27   2     0     8     8  0.407      0.407      0.0007602 
   1    28   1     0     1     1  0.407      0.407      0.0007602 
   1    29   1     0     1     1  0.408      0.408      0.0007602 
   1    30   1     0     1     1  0.409      0.409      0.001140  
   1    31   1U    0     4     4  0.409      0.409      0.001711  
   1    31   2     0     1     1  0.410      0.410      0.0004276 
   1    32   1     0     1     1  0.410      0.410      0.0006414 
   1    33   1     0     1     1  0.411      0.411      0.0009622 
   1    34   1U    0     4     4  0.411      0.411      0.001443  
   1    34   2     0     1     1  0.412      0.412      0.0003608 
   1    35   1U    0     4     4  0.412      0.412      0.0005412 
   1    35   2U    0     4     4  0.412      0.412      0.0001353 
   1    35   3U    0     4     4  0.412      0.412      3.383e-05 
   1    35   4U    0     4     4  0.412      0.412      1.000e-05 
                          
 THE ANALYSIS HAS NOT BEEN COMPLETED
