1

   Abaqus 2025                                  Date 22-Feb-2026   Time 03:52:51
   For use by UNIVERSITAET STUTTGART under license from Dassault Systemes or its subsidiary.

                                                                                 
                                                                                 
 STEP    1     INCREMENT     1     STEP TIME    0.00    


                        S T E P       1     S T A T I C   A N A L Y S I S


                                                                                          

     AUTOMATIC TIME CONTROL WITH -
          A SUGGESTED INITIAL TIME INCREMENT OF                 1.00    
          AND A TOTAL TIME PERIOD OF                            1.00    
          THE MINIMUM TIME INCREMENT ALLOWED IS                1.000E-05
          THE MAXIMUM TIME INCREMENT ALLOWED IS                 1.00    

     LINEAR EQUATION SOLVER TYPE         DIRECT SPARSE

 CONVERGENCE TOLERANCE PARAMETERS FOR FORCE    
     CRITERION FOR RESIDUAL FORCE     FOR A NONLINEAR PROBLEM          5.000E-03
     CRITERION FOR DISP.    CORRECTION IN A NONLINEAR PROBLEM          1.000E-02
     INITIAL VALUE OF TIME AVERAGE FORCE                               1.000E-02
     AVERAGE FORCE     IS TIME AVERAGE FORCE    
     ALTERNATE CRIT. FOR RESIDUAL FORCE     FOR A NONLINEAR PROBLEM    2.000E-02
     CRITERION FOR ZERO FORCE     RELATIVE TO TIME AVRG. FORCE         1.000E-05
     CRITERION FOR RESIDUAL FORCE     WHEN THERE IS ZERO FLUX          1.000E-05
     CRITERION FOR DISP.    CORRECTION WHEN THERE IS ZERO FLUX         1.000E-03
     CRITERION FOR RESIDUAL FORCE     FOR A LINEAR INCREMENT           1.000E-08
     FIELD CONVERSION RATIO                                             1.00    
     CRITERION FOR ZERO FORCE     REL. TO TIME AVRG. MAX. FORCE        1.000E-05
     CRITERION FOR ZERO DISP.    RELATIVE TO CHARACTERISTIC LENGTH     1.000E-08

     VOLUMETRIC STRAIN COMPATIBILITY TOLERANCE FOR HYBRID SOLIDS       1.000E-05
     AXIAL STRAIN COMPATIBILITY TOLERANCE FOR HYBRID BEAMS             1.000E-05
     TRANS. SHEAR STRAIN COMPATIBILITY TOLERANCE FOR HYBRID BEAMS      1.000E-05
     SOFT CONTACT CONSTRAINT COMPATIBILITY TOLERANCE FOR P>P0          5.000E-03
     SOFT CONTACT CONSTRAINT COMPATIBILITY TOLERANCE FOR P=0.0         0.100    
     CONTACT FORCE ERROR TOLERANCE FOR CONVERT SDI=YES                 1.00    
     DISPLACEMENT COMPATIBILITY TOLERANCE FOR DCOUP ELEMENTS           1.000E-05
     ROTATION COMPATIBILITY TOLERANCE FOR DCOUP ELEMENTS               1.000E-05

 EQUILIBRIUM WILL BE CHECKED FOR SEVERE DISCONTINUITY ITERATIONS

 TIME INCREMENTATION CONTROL PARAMETERS:
     FIRST EQUILIBRIUM ITERATION FOR CONSECUTIVE DIVERGENCE CHECK              4
     EQUILIBRIUM ITERATION AT WHICH LOG. CONVERGENCE RATE CHECK BEGINS         8
     EQUILIBRIUM ITERATION AFTER WHICH ALTERNATE RESIDUAL IS USED              9
     MAXIMUM EQUILIBRIUM ITERATIONS ALLOWED                                   16
     EQUILIBRIUM ITERATION COUNT FOR CUT-BACK IN NEXT INCREMENT               10
     MAXIMUM EQUILIB. ITERS IN TWO INCREMENTS FOR TIME INCREMENT INCREASE      4
     MAXIMUM ITERATIONS FOR SEVERE DISCONTINUITIES                            50
     MAXIMUM ATTEMPTS ALLOWED IN AN INCREMENT                                  5
     MAXIMUM DISCON. ITERS IN TWO INCREMENTS FOR TIME INCREMENT INCREASE      50
     MAXIMUM CONTACT AUGMENTATIONS FOR *SURFACE BEHAVIOR,AUGMENTED LAGRANGE   50
     CUT-BACK FACTOR AFTER DIVERGENCE                                 0.2500    
     CUT-BACK FACTOR FOR TOO SLOW CONVERGENCE                         0.5000    
     CUT-BACK FACTOR AFTER TOO MANY EQUILIBRIUM ITERATIONS            0.7500    
     CUT-BACK FACTOR AFTER TOO MANY SEVERE DISCONTINUITY ITERATIONS   0.2500    
     CUT-BACK FACTOR AFTER PROBLEMS IN ELEMENT ASSEMBLY               0.2500    
     INCREASE FACTOR AFTER TWO INCREMENTS THAT CONVERGE QUICKLY        1.500    
     MAX. TIME INCREMENT INCREASE FACTOR ALLOWED                       1.500    
     MAX. TIME INCREMENT INCREASE FACTOR ALLOWED (DYNAMICS)            1.250    
     MAX. TIME INCREMENT INCREASE FACTOR ALLOWED (DIFFUSION)           2.000    
     MINIMUM TIME INCREMENT RATIO FOR EXTRAPOLATION TO OCCUR          0.1000    
     MAX. RATIO OF TIME INCREMENT TO STABILITY LIMIT                   1.000    
     FRACTION OF STABILITY LIMIT FOR NEW TIME INCREMENT               0.9500    
     TIME INCREMENT INCREASE FACTOR BEFORE A TIME POINT                1.000    
     GLOBAL STABILIZATION CONTROL IS NOT USED

          PRINT OF INCREMENT NUMBER, TIME, ETC., EVERY    1  INCREMENTS

     THE MAXIMUM NUMBER OF INCREMENTS IN THIS STEP IS                     100

          LARGE DISPLACEMENT THEORY WILL BE USED

     LINEAR EXTRAPOLATION WILL BE USED

     CHARACTERISTIC ELEMENT LENGTH     8.267E-04

     DETAILS REGARDING ACTUAL SOLUTION WAVEFRONT REQUESTED

     DETAILED OUTPUT OF DIAGNOSTICS TO DATABASE REQUESTED

     PRINT OF INCREMENT NUMBER, TIME, ETC., TO THE MESSAGE FILE EVERY     1  INCREMENTS

     COLLECTING MODEL CONSTRAINT INFORMATION FOR OVERCONSTRAINT CHECKS

     COLLECTING STEP CONSTRAINT INFORMATION FOR OVERCONSTRAINT CHECKS


  INCREMENT     1 STARTS. ATTEMPT NUMBER  1, TIME INCREMENT   1.00    
 
	SYMMETRIC PURE THREAD-BASED DIRECT SPARSE SOLVER RUNNING ON
 	1 HOST x 1 MPI RANK PER HOST x 1 THREAD PER RANK
        NUMBER OF EQUATIONS:  90774
        NUMBER OF RHS:        1
        NUMBER OF FLOPS:      5.924e+09
        SOLVER ELAPSED TIME:  219ms
 

 ***WARNING: THE SYSTEM MATRIX HAS 1 NEGATIVE EIGENVALUES.

     NEGATIVE EIGENVALUES MEAN THAT THE SYSTEM MATRIX IS NOT 
     POSITIVE DEFINITE:
     FOR EXAMPLE, A BIFURCATION (BUCKLING) LOAD MAY HAVE BEEN EXCEEDED.

               CONVERGENCE CHECKS FOR EQUILIBRIUM ITERATION     1


 AVERAGE FORCE                      2.114E+05   TIME AVG. FORCE       2.114E+05
 LARGEST SCALED RESIDUAL FORCE     -8.453E+06   AT NODE      10742   DOF  2
   INSTANCE: SPIRAL-1                                                                        
  CORRESPONDING RESIDUAL FORCE     -8.453E+06
 LARGEST INCREMENT OF DISP.          2.25       AT NODE       3156   DOF  3
   INSTANCE: SPIRAL-1                                                                        
 LARGEST CORRECTION TO DISP.         2.25       AT NODE       3156   DOF  3
   INSTANCE: SPIRAL-1                                                                        
          FORCE     EQUILIBRIUM NOT ACHIEVED WITHIN TOLERANCE.
 
	SYMMETRIC PURE THREAD-BASED DIRECT SPARSE SOLVER RUNNING ON
 	1 HOST x 1 MPI RANK PER HOST x 1 THREAD PER RANK
        NUMBER OF EQUATIONS:  90774
        NUMBER OF RHS:        1
        NUMBER OF FLOPS:      5.924e+09
        SOLVER ELAPSED TIME:  220ms
 

 ***WARNING: THE SYSTEM MATRIX HAS 34014 NEGATIVE EIGENVALUES.
             EXPLANATIONS ARE SUGGESTED AFTER THE FIRST OCCURRENCE OF THIS MESSAGE.

 ***WARNING: SOLVER PROBLEM.  ZERO PIVOT WHEN PROCESSING NODE 5698 INSTANCE 
             SPIRAL-1 D.O.F. 1
  Typically a zero pivot is associated with an overconstraint in the model. 
 However, Abaqus was not able to identify any chains of constraints that might 
 lead to an overconstraint at this node. This suggests that the model might be 
 in fact insufficiently constrained in this particular degree of freedom. 
 Please check the constraints used in this model. 


 ***WARNING: SOLVER PROBLEM.  ZERO PIVOT WHEN PROCESSING NODE 5698 INSTANCE 
             SPIRAL-1 D.O.F. 2
  Typically a zero pivot is associated with an overconstraint in the model. 
 However, Abaqus was not able to identify any chains of constraints that might 
 lead to an overconstraint at this node. This suggests that the model might be 
 in fact insufficiently constrained in this particular degree of freedom. 
 Please check the constraints used in this model. 


 ***WARNING: SOLVER PROBLEM.  ZERO PIVOT WHEN PROCESSING NODE 5698 INSTANCE 
             SPIRAL-1 D.O.F. 3
  Typically a zero pivot is associated with an overconstraint in the model. 
 However, Abaqus was not able to identify any chains of constraints that might 
 lead to an overconstraint at this node. This suggests that the model might be 
 in fact insufficiently constrained in this particular degree of freedom. 
 Please check the constraints used in this model. 


 ***WARNING: SOLVER PROBLEM.  ZERO PIVOT WHEN PROCESSING NODE 5753 INSTANCE 
             SPIRAL-1 D.O.F. 1
  Typically a zero pivot is associated with an overconstraint in the model. 
 However, Abaqus was not able to identify any chains of constraints that might 
 lead to an overconstraint at this node. This suggests that the model might be 
 in fact insufficiently constrained in this particular degree of freedom. 
 Please check the constraints used in this model. 


 ***WARNING: SOLVER PROBLEM.  ZERO PIVOT WHEN PROCESSING NODE 5753 INSTANCE 
             SPIRAL-1 D.O.F. 2
  Typically a zero pivot is associated with an overconstraint in the model. 
 However, Abaqus was not able to identify any chains of constraints that might 
 lead to an overconstraint at this node. This suggests that the model might be 
 in fact insufficiently constrained in this particular degree of freedom. 
 Please check the constraints used in this model. 


 ***WARNING: SOLVER PROBLEM.  ZERO PIVOT WHEN PROCESSING NODE 5753 INSTANCE 
             SPIRAL-1 D.O.F. 3
  Typically a zero pivot is associated with an overconstraint in the model. 
 However, Abaqus was not able to identify any chains of constraints that might 
 lead to an overconstraint at this node. This suggests that the model might be 
 in fact insufficiently constrained in this particular degree of freedom. 
 Please check the constraints used in this model. 


 ***WARNING: SOLVER PROBLEM.  ZERO PIVOT WHEN PROCESSING NODE 5697 INSTANCE 
             SPIRAL-1 D.O.F. 1
  Typically a zero pivot is associated with an overconstraint in the model. 
 However, Abaqus was not able to identify any chains of constraints that might 
 lead to an overconstraint at this node. This suggests that the model might be 
 in fact insufficiently constrained in this particular degree of freedom. 
 Please check the constraints used in this model. 


 ***WARNING: SOLVER PROBLEM.  ZERO PIVOT WHEN PROCESSING NODE 5697 INSTANCE 
             SPIRAL-1 D.O.F. 2
  Typically a zero pivot is associated with an overconstraint in the model. 
 However, Abaqus was not able to identify any chains of constraints that might 
 lead to an overconstraint at this node. This suggests that the model might be 
 in fact insufficiently constrained in this particular degree of freedom. 
 Please check the constraints used in this model. 


 ***WARNING: SOLVER PROBLEM.  ZERO PIVOT WHEN PROCESSING NODE 5697 INSTANCE 
             SPIRAL-1 D.O.F. 3
  Typically a zero pivot is associated with an overconstraint in the model. 
 However, Abaqus was not able to identify any chains of constraints that might 
 lead to an overconstraint at this node. This suggests that the model might be 
 in fact insufficiently constrained in this particular degree of freedom. 
 Please check the constraints used in this model. 


 ***WARNING: SOLVER PROBLEM.  ZERO PIVOT WHEN PROCESSING NODE 1551 INSTANCE 
             SPIRAL-1 D.O.F. 1
  Typically a zero pivot is associated with an overconstraint in the model. 
 However, Abaqus was not able to identify any chains of constraints that might 
 lead to an overconstraint at this node. This suggests that the model might be 
 in fact insufficiently constrained in this particular degree of freedom. 
 Please check the constraints used in this model. 


 ***WARNING: SOLVER PROBLEM.  ZERO PIVOT WHEN PROCESSING NODE 1551 INSTANCE 
             SPIRAL-1 D.O.F. 2
  Typically a zero pivot is associated with an overconstraint in the model. 
 However, Abaqus was not able to identify any chains of constraints that might 
 lead to an overconstraint at this node. This suggests that the model might be 
 in fact insufficiently constrained in this particular degree of freedom. 
 Please check the constraints used in this model. 


 ***WARNING: SOLVER PROBLEM.  ZERO PIVOT WHEN PROCESSING NODE 1551 INSTANCE 
             SPIRAL-1 D.O.F. 3
  Typically a zero pivot is associated with an overconstraint in the model. 
 However, Abaqus was not able to identify any chains of constraints that might 
 lead to an overconstraint at this node. This suggests that the model might be 
 in fact insufficiently constrained in this particular degree of freedom. 
 Please check the constraints used in this model. 


 ***WARNING: SOLVER PROBLEM.  ZERO PIVOT WHEN PROCESSING NODE 1550 INSTANCE 
             SPIRAL-1 D.O.F. 1
  Typically a zero pivot is associated with an overconstraint in the model. 
 However, Abaqus was not able to identify any chains of constraints that might 
 lead to an overconstraint at this node. This suggests that the model might be 
 in fact insufficiently constrained in this particular degree of freedom. 
 Please check the constraints used in this model. 


 ***WARNING: SOLVER PROBLEM.  ZERO PIVOT WHEN PROCESSING NODE 1550 INSTANCE 
             SPIRAL-1 D.O.F. 2
  Typically a zero pivot is associated with an overconstraint in the model. 
 However, Abaqus was not able to identify any chains of constraints that might 
 lead to an overconstraint at this node. This suggests that the model might be 
 in fact insufficiently constrained in this particular degree of freedom. 
 Please check the constraints used in this model. 


 ***WARNING: SOLVER PROBLEM.  ZERO PIVOT WHEN PROCESSING NODE 1550 INSTANCE 
             SPIRAL-1 D.O.F. 3
  Typically a zero pivot is associated with an overconstraint in the model. 
 However, Abaqus was not able to identify any chains of constraints that might 
 lead to an overconstraint at this node. This suggests that the model might be 
 in fact insufficiently constrained in this particular degree of freedom. 
 Please check the constraints used in this model. 


 ***WARNING: SOLVER PROBLEM.  ZERO PIVOT WHEN PROCESSING NODE 6208 INSTANCE 
             SPIRAL-1 D.O.F. 1
  Typically a zero pivot is associated with an overconstraint in the model. 
 However, Abaqus was not able to identify any chains of constraints that might 
 lead to an overconstraint at this node. This suggests that the model might be 
 in fact insufficiently constrained in this particular degree of freedom. 
 Please check the constraints used in this model. 


 ***WARNING: SOLVER PROBLEM.  ZERO PIVOT WHEN PROCESSING NODE 6208 INSTANCE 
             SPIRAL-1 D.O.F. 2
  Typically a zero pivot is associated with an overconstraint in the model. 
 However, Abaqus was not able to identify any chains of constraints that might 
 lead to an overconstraint at this node. This suggests that the model might be 
 in fact insufficiently constrained in this particular degree of freedom. 
 Please check the constraints used in this model. 


 ***WARNING: SOLVER PROBLEM.  ZERO PIVOT WHEN PROCESSING NODE 6208 INSTANCE 
             SPIRAL-1 D.O.F. 3
  Typically a zero pivot is associated with an overconstraint in the model. 
 However, Abaqus was not able to identify any chains of constraints that might 
 lead to an overconstraint at this node. This suggests that the model might be 
 in fact insufficiently constrained in this particular degree of freedom. 
 Please check the constraints used in this model. 


 ***WARNING: SOLVER PROBLEM.  ZERO PIVOT WHEN PROCESSING NODE 6209 INSTANCE 
             SPIRAL-1 D.O.F. 1
  Typically a zero pivot is associated with an overconstraint in the model. 
 However, Abaqus was not able to identify any chains of constraints that might 
 lead to an overconstraint at this node. This suggests that the model might be 
 in fact insufficiently constrained in this particular degree of freedom. 
 Please check the constraints used in this model. 


 ***WARNING: SOLVER PROBLEM.  ZERO PIVOT WHEN PROCESSING NODE 6209 INSTANCE 
             SPIRAL-1 D.O.F. 2
  Typically a zero pivot is associated with an overconstraint in the model. 
 However, Abaqus was not able to identify any chains of constraints that might 
 lead to an overconstraint at this node. This suggests that the model might be 
 in fact insufficiently constrained in this particular degree of freedom. 
 Please check the constraints used in this model. 


 ***WARNING: SOLVER PROBLEM.  ZERO PIVOT WHEN PROCESSING NODE 6209 INSTANCE 
             SPIRAL-1 D.O.F. 3
  Typically a zero pivot is associated with an overconstraint in the model. 
 However, Abaqus was not able to identify any chains of constraints that might 
 lead to an overconstraint at this node. This suggests that the model might be 
 in fact insufficiently constrained in this particular degree of freedom. 
 Please check the constraints used in this model. 


 ***WARNING: SOLVER PROBLEM.  ZERO PIVOT WHEN PROCESSING NODE 6590 INSTANCE 
             SPIRAL-1 D.O.F. 1
  Typically a zero pivot is associated with an overconstraint in the model. 
 However, Abaqus was not able to identify any chains of constraints that might 
 lead to an overconstraint at this node. This suggests that the model might be 
 in fact insufficiently constrained in this particular degree of freedom. 
 Please check the constraints used in this model. 


 ***WARNING: SOLVER PROBLEM.  ZERO PIVOT WHEN PROCESSING NODE 6590 INSTANCE 
             SPIRAL-1 D.O.F. 2
  Typically a zero pivot is associated with an overconstraint in the model. 
 However, Abaqus was not able to identify any chains of constraints that might 
 lead to an overconstraint at this node. This suggests that the model might be 
 in fact insufficiently constrained in this particular degree of freedom. 
 Please check the constraints used in this model. 


 ***WARNING: SOLVER PROBLEM.  ZERO PIVOT WHEN PROCESSING NODE 6590 INSTANCE 
             SPIRAL-1 D.O.F. 3
  Typically a zero pivot is associated with an overconstraint in the model. 
 However, Abaqus was not able to identify any chains of constraints that might 
 lead to an overconstraint at this node. This suggests that the model might be 
 in fact insufficiently constrained in this particular degree of freedom. 
 Please check the constraints used in this model. 


 ***WARNING: SOLVER PROBLEM.  ZERO PIVOT WHEN PROCESSING NODE 6586 INSTANCE 
             SPIRAL-1 D.O.F. 1
  Typically a zero pivot is associated with an overconstraint in the model. 
 However, Abaqus was not able to identify any chains of constraints that might 
 lead to an overconstraint at this node. This suggests that the model might be 
 in fact insufficiently constrained in this particular degree of freedom. 
 Please check the constraints used in this model. 


 ***WARNING: SOLVER PROBLEM.  ZERO PIVOT WHEN PROCESSING NODE 6586 INSTANCE 
             SPIRAL-1 D.O.F. 2
  Typically a zero pivot is associated with an overconstraint in the model. 
 However, Abaqus was not able to identify any chains of constraints that might 
 lead to an overconstraint at this node. This suggests that the model might be 
 in fact insufficiently constrained in this particular degree of freedom. 
 Please check the constraints used in this model. 


 ***WARNING: SOLVER PROBLEM.  ZERO PIVOT WHEN PROCESSING NODE 6586 INSTANCE 
             SPIRAL-1 D.O.F. 3
  Typically a zero pivot is associated with an overconstraint in the model. 
 However, Abaqus was not able to identify any chains of constraints that might 
 lead to an overconstraint at this node. This suggests that the model might be 
 in fact insufficiently constrained in this particular degree of freedom. 
 Please check the constraints used in this model. 


 ***WARNING: SOLVER PROBLEM.  ZERO PIVOT WHEN PROCESSING NODE 6427 INSTANCE 
             SPIRAL-1 D.O.F. 1
  Typically a zero pivot is associated with an overconstraint in the model. 
 However, Abaqus was not able to identify any chains of constraints that might 
 lead to an overconstraint at this node. This suggests that the model might be 
 in fact insufficiently constrained in this particular degree of freedom. 
 Please check the constraints used in this model. 


 ***WARNING: SOLVER PROBLEM.  ZERO PIVOT WHEN PROCESSING NODE 6427 INSTANCE 
             SPIRAL-1 D.O.F. 2
  Typically a zero pivot is associated with an overconstraint in the model. 
 However, Abaqus was not able to identify any chains of constraints that might 
 lead to an overconstraint at this node. This suggests that the model might be 
 in fact insufficiently constrained in this particular degree of freedom. 
 Please check the constraints used in this model. 


 ***WARNING: SOLVER PROBLEM.  ZERO PIVOT WHEN PROCESSING NODE 6427 INSTANCE 
             SPIRAL-1 D.O.F. 3
  Typically a zero pivot is associated with an overconstraint in the model. 
 However, Abaqus was not able to identify any chains of constraints that might 
 lead to an overconstraint at this node. This suggests that the model might be 
 in fact insufficiently constrained in this particular degree of freedom. 
 Please check the constraints used in this model. 


 ***WARNING: SOLVER PROBLEM.  ZERO PIVOT WHEN PROCESSING NODE 6407 INSTANCE 
             SPIRAL-1 D.O.F. 1
  Typically a zero pivot is associated with an overconstraint in the model. 
 However, Abaqus was not able to identify any chains of constraints that might 
 lead to an overconstraint at this node. This suggests that the model might be 
 in fact insufficiently constrained in this particular degree of freedom. 
 Please check the constraints used in this model. 


 ***WARNING: SOLVER PROBLEM.  ZERO PIVOT WHEN PROCESSING NODE 6407 INSTANCE 
             SPIRAL-1 D.O.F. 2
  Typically a zero pivot is associated with an overconstraint in the model. 
 However, Abaqus was not able to identify any chains of constraints that might 
 lead to an overconstraint at this node. This suggests that the model might be 
 in fact insufficiently constrained in this particular degree of freedom. 
 Please check the constraints used in this model. 


 ***WARNING: SOLVER PROBLEM.  ZERO PIVOT WHEN PROCESSING NODE 6407 INSTANCE 
             SPIRAL-1 D.O.F. 3
  Typically a zero pivot is associated with an overconstraint in the model. 
 However, Abaqus was not able to identify any chains of constraints that might 
 lead to an overconstraint at this node. This suggests that the model might be 
 in fact insufficiently constrained in this particular degree of freedom. 
 Please check the constraints used in this model. 


 ***WARNING: SOLVER PROBLEM.  ZERO PIVOT WHEN PROCESSING NODE 20140 INSTANCE 
             SPIRAL-1 D.O.F. 1
  Typically a zero pivot is associated with an overconstraint in the model. 
 However, Abaqus was not able to identify any chains of constraints that might 
 lead to an overconstraint at this node. This suggests that the model might be 
 in fact insufficiently constrained in this particular degree of freedom. 
 Please check the constraints used in this model. 


 ***WARNING: SOLVER PROBLEM.  ZERO PIVOT WHEN PROCESSING NODE 20140 INSTANCE 
             SPIRAL-1 D.O.F. 2
  Typically a zero pivot is associated with an overconstraint in the model. 
 However, Abaqus was not able to identify any chains of constraints that might 
 lead to an overconstraint at this node. This suggests that the model might be 
 in fact insufficiently constrained in this particular degree of freedom. 
 Please check the constraints used in this model. 


 ***WARNING: SOLVER PROBLEM.  ZERO PIVOT WHEN PROCESSING NODE 20140 INSTANCE 
             SPIRAL-1 D.O.F. 3
  Typically a zero pivot is associated with an overconstraint in the model. 
 However, Abaqus was not able to identify any chains of constraints that might 
 lead to an overconstraint at this node. This suggests that the model might be 
 in fact insufficiently constrained in this particular degree of freedom. 
 Please check the constraints used in this model. 


 ***WARNING: SOLVER PROBLEM.  ZERO PIVOT WHEN PROCESSING NODE 1369 INSTANCE 
             SPIRAL-1 D.O.F. 1
  Typically a zero pivot is associated with an overconstraint in the model. 
 However, Abaqus was not able to identify any chains of constraints that might 
 lead to an overconstraint at this node. This suggests that the model might be 
 in fact insufficiently constrained in this particular degree of freedom. 
 Please check the constraints used in this model. 


 ***WARNING: SOLVER PROBLEM.  ZERO PIVOT WHEN PROCESSING NODE 1369 INSTANCE 
             SPIRAL-1 D.O.F. 2
  Typically a zero pivot is associated with an overconstraint in the model. 
 However, Abaqus was not able to identify any chains of constraints that might 
 lead to an overconstraint at this node. This suggests that the model might be 
 in fact insufficiently constrained in this particular degree of freedom. 
 Please check the constraints used in this model. 


 ***WARNING: SOLVER PROBLEM.  ZERO PIVOT WHEN PROCESSING NODE 1369 INSTANCE 
             SPIRAL-1 D.O.F. 3
  Typically a zero pivot is associated with an overconstraint in the model. 
 However, Abaqus was not able to identify any chains of constraints that might 
 lead to an overconstraint at this node. This suggests that the model might be 
 in fact insufficiently constrained in this particular degree of freedom. 
 Please check the constraints used in this model. 


 ***WARNING: SOLVER PROBLEM.  ZERO PIVOT WHEN PROCESSING NODE 1368 INSTANCE 
             SPIRAL-1 D.O.F. 1
  Typically a zero pivot is associated with an overconstraint in the model. 
 However, Abaqus was not able to identify any chains of constraints that might 
 lead to an overconstraint at this node. This suggests that the model might be 
 in fact insufficiently constrained in this particular degree of freedom. 
 Please check the constraints used in this model. 


 ***WARNING: SOLVER PROBLEM.  ZERO PIVOT WHEN PROCESSING NODE 1368 INSTANCE 
             SPIRAL-1 D.O.F. 2
  Typically a zero pivot is associated with an overconstraint in the model. 
 However, Abaqus was not able to identify any chains of constraints that might 
 lead to an overconstraint at this node. This suggests that the model might be 
 in fact insufficiently constrained in this particular degree of freedom. 
 Please check the constraints used in this model. 


 ***WARNING: SOLVER PROBLEM.  ZERO PIVOT WHEN PROCESSING NODE 1368 INSTANCE 
             SPIRAL-1 D.O.F. 3
  Typically a zero pivot is associated with an overconstraint in the model. 
 However, Abaqus was not able to identify any chains of constraints that might 
 lead to an overconstraint at this node. This suggests that the model might be 
 in fact insufficiently constrained in this particular degree of freedom. 
 Please check the constraints used in this model. 


 ***WARNING: SOLVER PROBLEM.  ZERO PIVOT WHEN PROCESSING NODE 5772 INSTANCE 
             SPIRAL-1 D.O.F. 1
  Typically a zero pivot is associated with an overconstraint in the model. 
 However, Abaqus was not able to identify any chains of constraints that might 
 lead to an overconstraint at this node. This suggests that the model might be 
 in fact insufficiently constrained in this particular degree of freedom. 
 Please check the constraints used in this model. 


 ***WARNING: SOLVER PROBLEM.  ZERO PIVOT WHEN PROCESSING NODE 5772 INSTANCE 
             SPIRAL-1 D.O.F. 2
  Typically a zero pivot is associated with an overconstraint in the model. 
 However, Abaqus was not able to identify any chains of constraints that might 
 lead to an overconstraint at this node. This suggests that the model might be 
 in fact insufficiently constrained in this particular degree of freedom. 
 Please check the constraints used in this model. 


 ***WARNING: SOLVER PROBLEM.  ZERO PIVOT WHEN PROCESSING NODE 5772 INSTANCE 
             SPIRAL-1 D.O.F. 3
  Typically a zero pivot is associated with an overconstraint in the model. 
 However, Abaqus was not able to identify any chains of constraints that might 
 lead to an overconstraint at this node. This suggests that the model might be 
 in fact insufficiently constrained in this particular degree of freedom. 
 Please check the constraints used in this model. 


 ***WARNING: SOLVER PROBLEM.  ZERO PIVOT WHEN PROCESSING NODE 5752 INSTANCE 
             SPIRAL-1 D.O.F. 1
  Typically a zero pivot is associated with an overconstraint in the model. 
 However, Abaqus was not able to identify any chains of constraints that might 
 lead to an overconstraint at this node. This suggests that the model might be 
 in fact insufficiently constrained in this particular degree of freedom. 
 Please check the constraints used in this model. 


 ***WARNING: SOLVER PROBLEM.  ZERO PIVOT WHEN PROCESSING NODE 5752 INSTANCE 
             SPIRAL-1 D.O.F. 2
  Typically a zero pivot is associated with an overconstraint in the model. 
 However, Abaqus was not able to identify any chains of constraints that might 
 lead to an overconstraint at this node. This suggests that the model might be 
 in fact insufficiently constrained in this particular degree of freedom. 
 Please check the constraints used in this model. 


 ***WARNING: SOLVER PROBLEM.  ZERO PIVOT WHEN PROCESSING NODE 5752 INSTANCE 
             SPIRAL-1 D.O.F. 3
  Typically a zero pivot is associated with an overconstraint in the model. 
 However, Abaqus was not able to identify any chains of constraints that might 
 lead to an overconstraint at this node. This suggests that the model might be 
 in fact insufficiently constrained in this particular degree of freedom. 
 Please check the constraints used in this model. 


 ***WARNING: SOLVER PROBLEM.  ZERO PIVOT WHEN PROCESSING NODE 5931 INSTANCE 
             SPIRAL-1 D.O.F. 1
  Typically a zero pivot is associated with an overconstraint in the model. 
 However, Abaqus was not able to identify any chains of constraints that might 
 lead to an overconstraint at this node. This suggests that the model might be 
 in fact insufficiently constrained in this particular degree of freedom. 
 Please check the constraints used in this model. 


 ***WARNING: Solver problem. Zero pivot when processing D.O.F. 1 of 17 nodes. 
             The nodes have been identified in node set 
             WarnNodeSolvProbZeroPiv_1_1_1_2_1.

 ***WARNING: Solver problem. Zero pivot when processing D.O.F. 2 of 16 nodes. 
             The nodes have been identified in node set 
             WarnNodeSolvProbZeroPiv_2_1_1_2_1.

 ***WARNING: Solver problem. Zero pivot when processing D.O.F. 3 of 16 nodes. 
             The nodes have been identified in node set 
             WarnNodeSolvProbZeroPiv_3_1_1_2_1.
   ELEMENT SPIRAL-1.1 IS DISTORTING EXCESSIVELY.
   ELEMENT SPIRAL-1.2 IS DISTORTING EXCESSIVELY.
   ELEMENT SPIRAL-1.3 IS DISTORTING EXCESSIVELY.
   ELEMENT SPIRAL-1.4 IS DISTORTING EXCESSIVELY.
   ELEMENT SPIRAL-1.5 IS DISTORTING EXCESSIVELY.
   ELEMENT SPIRAL-1.6 IS DISTORTING EXCESSIVELY.
   ELEMENT SPIRAL-1.7 IS DISTORTING EXCESSIVELY.
   ELEMENT SPIRAL-1.8 IS DISTORTING EXCESSIVELY.
   ELEMENT SPIRAL-1.9 IS DISTORTING EXCESSIVELY.
   ELEMENT SPIRAL-1.11 IS DISTORTING EXCESSIVELY.
   ELEMENT SPIRAL-1.13 IS DISTORTING EXCESSIVELY.
   ELEMENT SPIRAL-1.14 IS DISTORTING EXCESSIVELY.
   ELEMENT SPIRAL-1.16 IS DISTORTING EXCESSIVELY.
   ELEMENT SPIRAL-1.17 IS DISTORTING EXCESSIVELY.
   ELEMENT SPIRAL-1.22 IS DISTORTING EXCESSIVELY.
   ELEMENT SPIRAL-1.27 IS DISTORTING EXCESSIVELY.
   ELEMENT SPIRAL-1.29 IS DISTORTING EXCESSIVELY.
   ELEMENT SPIRAL-1.31 IS DISTORTING EXCESSIVELY.
   ELEMENT SPIRAL-1.35 IS DISTORTING EXCESSIVELY.
   ELEMENT SPIRAL-1.36 IS DISTORTING EXCESSIVELY.
   ELEMENT SPIRAL-1.38 IS DISTORTING EXCESSIVELY.
   ELEMENT SPIRAL-1.39 IS DISTORTING EXCESSIVELY.
   ELEMENT SPIRAL-1.41 IS DISTORTING EXCESSIVELY.
   ELEMENT SPIRAL-1.42 IS DISTORTING EXCESSIVELY.
   ELEMENT SPIRAL-1.44 IS DISTORTING EXCESSIVELY.
   ELEMENT SPIRAL-1.45 IS DISTORTING EXCESSIVELY.
   ELEMENT SPIRAL-1.48 IS DISTORTING EXCESSIVELY.
   ELEMENT SPIRAL-1.49 IS DISTORTING EXCESSIVELY.
   ELEMENT SPIRAL-1.51 IS DISTORTING EXCESSIVELY.
   ELEMENT SPIRAL-1.53 IS DISTORTING EXCESSIVELY.
   ELEMENT SPIRAL-1.55 IS DISTORTING EXCESSIVELY.
   ELEMENT SPIRAL-1.56 IS DISTORTING EXCESSIVELY.
   ELEMENT SPIRAL-1.57 IS DISTORTING EXCESSIVELY.
   ELEMENT SPIRAL-1.58 IS DISTORTING EXCESSIVELY.
   ELEMENT SPIRAL-1.59 IS DISTORTING EXCESSIVELY.
   ELEMENT SPIRAL-1.60 IS DISTORTING EXCESSIVELY.
   ELEMENT SPIRAL-1.61 IS DISTORTING EXCESSIVELY.
   ELEMENT SPIRAL-1.62 IS DISTORTING EXCESSIVELY.
   ELEMENT SPIRAL-1.63 IS DISTORTING EXCESSIVELY.
   ELEMENT SPIRAL-1.65 IS DISTORTING EXCESSIVELY.
   ELEMENT SPIRAL-1.67 IS DISTORTING EXCESSIVELY.
   ELEMENT SPIRAL-1.68 IS DISTORTING EXCESSIVELY.
   ELEMENT SPIRAL-1.69 IS DISTORTING EXCESSIVELY.
   ELEMENT SPIRAL-1.70 IS DISTORTING EXCESSIVELY.
   ELEMENT SPIRAL-1.71 IS DISTORTING EXCESSIVELY.
   ELEMENT SPIRAL-1.72 IS DISTORTING EXCESSIVELY.
   ELEMENT SPIRAL-1.73 IS DISTORTING EXCESSIVELY.
   ELEMENT SPIRAL-1.74 IS DISTORTING EXCESSIVELY.
   ELEMENT SPIRAL-1.76 IS DISTORTING EXCESSIVELY.
   ELEMENT SPIRAL-1.77 IS DISTORTING EXCESSIVELY.
   ELEMENT SPIRAL-1.82 IS DISTORTING EXCESSIVELY.
   ELEMENT SPIRAL-1.83 IS DISTORTING EXCESSIVELY.
   ELEMENT SPIRAL-1.84 IS DISTORTING EXCESSIVELY.
   ELEMENT SPIRAL-1.86 IS DISTORTING EXCESSIVELY.
   ELEMENT SPIRAL-1.88 IS DISTORTING EXCESSIVELY.
   ELEMENT SPIRAL-1.89 IS DISTORTING EXCESSIVELY.
   ELEMENT SPIRAL-1.93 IS DISTORTING EXCESSIVELY.
   ELEMENT SPIRAL-1.97 IS DISTORTING EXCESSIVELY.
   ELEMENT SPIRAL-1.98 IS DISTORTING EXCESSIVELY.
   ELEMENT SPIRAL-1.103 IS DISTORTING EXCESSIVELY.
   ELEMENT SPIRAL-1.104 IS DISTORTING EXCESSIVELY.
   ELEMENT SPIRAL-1.105 IS DISTORTING EXCESSIVELY.
   ELEMENT SPIRAL-1.107 IS DISTORTING EXCESSIVELY.
   ELEMENT SPIRAL-1.109 IS DISTORTING EXCESSIVELY.
   ELEMENT SPIRAL-1.111 IS DISTORTING EXCESSIVELY.
   ELEMENT SPIRAL-1.113 IS DISTORTING EXCESSIVELY.
   ELEMENT SPIRAL-1.114 IS DISTORTING EXCESSIVELY.
   ELEMENT SPIRAL-1.115 IS DISTORTING EXCESSIVELY.
   ELEMENT SPIRAL-1.116 IS DISTORTING EXCESSIVELY.
   ELEMENT SPIRAL-1.117 IS DISTORTING EXCESSIVELY.
   ELEMENT SPIRAL-1.118 IS DISTORTING EXCESSIVELY.
   ELEMENT SPIRAL-1.120 IS DISTORTING EXCESSIVELY.
   ELEMENT SPIRAL-1.123 IS DISTORTING EXCESSIVELY.
   ELEMENT SPIRAL-1.124 IS DISTORTING EXCESSIVELY.
   ELEMENT SPIRAL-1.125 IS DISTORTING EXCESSIVELY.
   ELEMENT SPIRAL-1.126 IS DISTORTING EXCESSIVELY.
   ELEMENT SPIRAL-1.127 IS DISTORTING EXCESSIVELY.
   ELEMENT SPIRAL-1.129 IS DISTORTING EXCESSIVELY.
   ELEMENT SPIRAL-1.131 IS DISTORTING EXCESSIVELY.
   ELEMENT SPIRAL-1.133 IS DISTORTING EXCESSIVELY.
   ELEMENT SPIRAL-1.135 IS DISTORTING EXCESSIVELY.
   ELEMENT SPIRAL-1.137 IS DISTORTING EXCESSIVELY.
   ELEMENT SPIRAL-1.138 IS DISTORTING EXCESSIVELY.
   ELEMENT SPIRAL-1.139 IS DISTORTING EXCESSIVELY.
   ELEMENT SPIRAL-1.142 IS DISTORTING EXCESSIVELY.
   ELEMENT SPIRAL-1.144 IS DISTORTING EXCESSIVELY.
   ELEMENT SPIRAL-1.146 IS DISTORTING EXCESSIVELY.
   ELEMENT SPIRAL-1.147 IS DISTORTING EXCESSIVELY.
   ELEMENT SPIRAL-1.148 IS DISTORTING EXCESSIVELY.
   ELEMENT SPIRAL-1.149 IS DISTORTING EXCESSIVELY.
   ELEMENT SPIRAL-1.152 IS DISTORTING EXCESSIVELY.
   ELEMENT SPIRAL-1.153 IS DISTORTING EXCESSIVELY.
   ELEMENT SPIRAL-1.155 IS DISTORTING EXCESSIVELY.
   ELEMENT SPIRAL-1.159 IS DISTORTING EXCESSIVELY.
   ELEMENT SPIRAL-1.161 IS DISTORTING EXCESSIVELY.
   ELEMENT SPIRAL-1.162 IS DISTORTING EXCESSIVELY.
   ELEMENT SPIRAL-1.163 IS DISTORTING EXCESSIVELY.
   ELEMENT SPIRAL-1.166 IS DISTORTING EXCESSIVELY.
   ELEMENT SPIRAL-1.167 IS DISTORTING EXCESSIVELY.
   ELEMENT SPIRAL-1.168 IS DISTORTING EXCESSIVELY.
   ELEMENT SPIRAL-1.169 IS DISTORTING EXCESSIVELY.
   ELEMENT SPIRAL-1.170 IS DISTORTING EXCESSIVELY.
   ELEMENT SPIRAL-1.171 IS DISTORTING EXCESSIVELY.
   ELEMENT SPIRAL-1.172 IS DISTORTING EXCESSIVELY.
   ELEMENT SPIRAL-1.175 IS DISTORTING EXCESSIVELY.
   ELEMENT SPIRAL-1.184 IS DISTORTING EXCESSIVELY.
   ELEMENT SPIRAL-1.185 IS DISTORTING EXCESSIVELY.
   ELEMENT SPIRAL-1.186 IS DISTORTING EXCESSIVELY.
   ELEMENT SPIRAL-1.187 IS DISTORTING EXCESSIVELY.
   ELEMENT SPIRAL-1.188 IS DISTORTING EXCESSIVELY.
   ELEMENT SPIRAL-1.189 IS DISTORTING EXCESSIVELY.
   ELEMENT SPIRAL-1.190 IS DISTORTING EXCESSIVELY.
   ELEMENT SPIRAL-1.191 IS DISTORTING EXCESSIVELY.
   ELEMENT SPIRAL-1.195 IS DISTORTING EXCESSIVELY.
   ELEMENT SPIRAL-1.196 IS DISTORTING EXCESSIVELY.
   ELEMENT SPIRAL-1.197 IS DISTORTING EXCESSIVELY.
   ELEMENT SPIRAL-1.198 IS DISTORTING EXCESSIVELY.
   ELEMENT SPIRAL-1.201 IS DISTORTING EXCESSIVELY.
   ELEMENT SPIRAL-1.203 IS DISTORTING EXCESSIVELY.
   ELEMENT SPIRAL-1.204 IS DISTORTING EXCESSIVELY.
   ELEMENT SPIRAL-1.205 IS DISTORTING EXCESSIVELY.
   ELEMENT SPIRAL-1.206 IS DISTORTING EXCESSIVELY.
   ELEMENT SPIRAL-1.211 IS DISTORTING EXCESSIVELY.
   ELEMENT SPIRAL-1.213 IS DISTORTING EXCESSIVELY.
   ELEMENT SPIRAL-1.215 IS DISTORTING EXCESSIVELY.
   ELEMENT SPIRAL-1.218 IS DISTORTING EXCESSIVELY.
   ELEMENT SPIRAL-1.219 IS DISTORTING EXCESSIVELY.
   ELEMENT SPIRAL-1.221 IS DISTORTING EXCESSIVELY.
   ELEMENT SPIRAL-1.222 IS DISTORTING EXCESSIVELY.
   ELEMENT SPIRAL-1.223 IS DISTORTING EXCESSIVELY.
   ELEMENT SPIRAL-1.224 IS DISTORTING EXCESSIVELY.
   ELEMENT SPIRAL-1.226 IS DISTORTING EXCESSIVELY.
   ELEMENT SPIRAL-1.234 IS DISTORTING EXCESSIVELY.
   ELEMENT SPIRAL-1.237 IS DISTORTING EXCESSIVELY.
   ELEMENT SPIRAL-1.239 IS DISTORTING EXCESSIVELY.
   ELEMENT SPIRAL-1.241 IS DISTORTING EXCESSIVELY.
   ELEMENT SPIRAL-1.244 IS DISTORTING EXCESSIVELY.
   ELEMENT SPIRAL-1.246 IS DISTORTING EXCESSIVELY.
   ELEMENT SPIRAL-1.248 IS DISTORTING EXCESSIVELY.
   ELEMENT SPIRAL-1.249 IS DISTORTING EXCESSIVELY.
   ELEMENT SPIRAL-1.252 IS DISTORTING EXCESSIVELY.
   ELEMENT SPIRAL-1.253 IS DISTORTING EXCESSIVELY.
   ELEMENT SPIRAL-1.255 IS DISTORTING EXCESSIVELY.
   ELEMENT SPIRAL-1.256 IS DISTORTING EXCESSIVELY.
   ELEMENT SPIRAL-1.258 IS DISTORTING EXCESSIVELY.
   ELEMENT SPIRAL-1.259 IS DISTORTING EXCESSIVELY.
   ELEMENT SPIRAL-1.260 IS DISTORTING EXCESSIVELY.
   ELEMENT SPIRAL-1.262 IS DISTORTING EXCESSIVELY.
   ELEMENT SPIRAL-1.263 IS DISTORTING EXCESSIVELY.
   ELEMENT SPIRAL-1.270 IS DISTORTING EXCESSIVELY.
   ELEMENT SPIRAL-1.272 IS DISTORTING EXCESSIVELY.
   ELEMENT SPIRAL-1.273 IS DISTORTING EXCESSIVELY.
   ELEMENT SPIRAL-1.276 IS DISTORTING EXCESSIVELY.
   ELEMENT SPIRAL-1.277 IS DISTORTING EXCESSIVELY.
   ELEMENT SPIRAL-1.279 IS DISTORTING EXCESSIVELY.
   ELEMENT SPIRAL-1.281 IS DISTORTING EXCESSIVELY.
   ELEMENT SPIRAL-1.282 IS DISTORTING EXCESSIVELY.
   ELEMENT SPIRAL-1.283 IS DISTORTING EXCESSIVELY.
   ELEMENT SPIRAL-1.285 IS DISTORTING EXCESSIVELY.
   ELEMENT SPIRAL-1.286 IS DISTORTING EXCESSIVELY.
   ELEMENT SPIRAL-1.287 IS DISTORTING EXCESSIVELY.
   ELEMENT SPIRAL-1.290 IS DISTORTING EXCESSIVELY.
   ELEMENT SPIRAL-1.292 IS DISTORTING EXCESSIVELY.
   ELEMENT SPIRAL-1.296 IS DISTORTING EXCESSIVELY.
   ELEMENT SPIRAL-1.300 IS DISTORTING EXCESSIVELY.
   ELEMENT SPIRAL-1.302 IS DISTORTING EXCESSIVELY.
   ELEMENT SPIRAL-1.304 IS DISTORTING EXCESSIVELY.
   ELEMENT SPIRAL-1.306 IS DISTORTING EXCESSIVELY.
   ELEMENT SPIRAL-1.308 IS DISTORTING EXCESSIVELY.
   ELEMENT SPIRAL-1.309 IS DISTORTING EXCESSIVELY.
   ELEMENT SPIRAL-1.310 IS DISTORTING EXCESSIVELY.
   ELEMENT SPIRAL-1.312 IS DISTORTING EXCESSIVELY.
   ELEMENT SPIRAL-1.313 IS DISTORTING EXCESSIVELY.
   ELEMENT SPIRAL-1.315 IS DISTORTING EXCESSIVELY.
   ELEMENT SPIRAL-1.316 IS DISTORTING EXCESSIVELY.
   ELEMENT SPIRAL-1.317 IS DISTORTING EXCESSIVELY.
   ELEMENT SPIRAL-1.318 IS DISTORTING EXCESSIVELY.
   ELEMENT SPIRAL-1.320 IS DISTORTING EXCESSIVELY.
   ELEMENT SPIRAL-1.323 IS DISTORTING EXCESSIVELY.
   ELEMENT SPIRAL-1.325 IS DISTORTING EXCESSIVELY.
   ELEMENT SPIRAL-1.327 IS DISTORTING EXCESSIVELY.
   ELEMENT SPIRAL-1.329 IS DISTORTING EXCESSIVELY.
   ELEMENT SPIRAL-1.330 IS DISTORTING EXCESSIVELY.
   ELEMENT SPIRAL-1.331 IS DISTORTING EXCESSIVELY.
   ELEMENT SPIRAL-1.335 IS DISTORTING EXCESSIVELY.
   ELEMENT SPIRAL-1.338 IS DISTORTING EXCESSIVELY.
   ELEMENT SPIRAL-1.340 IS DISTORTING EXCESSIVELY.
   ELEMENT SPIRAL-1.341 IS DISTORTING EXCESSIVELY.
   ELEMENT SPIRAL-1.346 IS DISTORTING EXCESSIVELY.
   ELEMENT SPIRAL-1.347 IS DISTORTING EXCESSIVELY.
   ELEMENT SPIRAL-1.349 IS DISTORTING EXCESSIVELY.
   ELEMENT SPIRAL-1.351 IS DISTORTING EXCESSIVELY.
   ELEMENT SPIRAL-1.355 IS DISTORTING EXCESSIVELY.
   ELEMENT SPIRAL-1.356 IS DISTORTING EXCESSIVELY.
   ELEMENT SPIRAL-1.359 IS DISTORTING EXCESSIVELY.
   ELEMENT SPIRAL-1.360 IS DISTORTING EXCESSIVELY.
   ELEMENT SPIRAL-1.365 IS DISTORTING EXCESSIVELY.
   ELEMENT SPIRAL-1.366 IS DISTORTING EXCESSIVELY.
   ELEMENT SPIRAL-1.367 IS DISTORTING EXCESSIVELY.
   ELEMENT SPIRAL-1.368 IS DISTORTING EXCESSIVELY.
   ELEMENT SPIRAL-1.369 IS DISTORTING EXCESSIVELY.
   ELEMENT SPIRAL-1.370 IS DISTORTING EXCESSIVELY.
   ELEMENT SPIRAL-1.371 IS DISTORTING EXCESSIVELY.
   ELEMENT SPIRAL-1.372 IS DISTORTING EXCESSIVELY.
   ELEMENT SPIRAL-1.373 IS DISTORTING EXCESSIVELY.
   ELEMENT SPIRAL-1.376 IS DISTORTING EXCESSIVELY.
   ELEMENT SPIRAL-1.378 IS DISTORTING EXCESSIVELY.
   ELEMENT SPIRAL-1.380 IS DISTORTING EXCESSIVELY.
   ELEMENT SPIRAL-1.381 IS DISTORTING EXCESSIVELY.
   ELEMENT SPIRAL-1.382 IS DISTORTING EXCESSIVELY.
   ELEMENT SPIRAL-1.383 IS DISTORTING EXCESSIVELY.
   ELEMENT SPIRAL-1.385 IS DISTORTING EXCESSIVELY.
   ELEMENT SPIRAL-1.387 IS DISTORTING EXCESSIVELY.
   ELEMENT SPIRAL-1.392 IS DISTORTING EXCESSIVELY.
   ELEMENT SPIRAL-1.393 IS DISTORTING EXCESSIVELY.
   ELEMENT SPIRAL-1.394 IS DISTORTING EXCESSIVELY.
   ELEMENT SPIRAL-1.395 IS DISTORTING EXCESSIVELY.
   ELEMENT SPIRAL-1.396 IS DISTORTING EXCESSIVELY.
   ELEMENT SPIRAL-1.397 IS DISTORTING EXCESSIVELY.
   ELEMENT SPIRAL-1.398 IS DISTORTING EXCESSIVELY.
   ELEMENT SPIRAL-1.399 IS DISTORTING EXCESSIVELY.
   ELEMENT SPIRAL-1.401 IS DISTORTING EXCESSIVELY.
   ELEMENT SPIRAL-1.403 IS DISTORTING EXCESSIVELY.
   ELEMENT SPIRAL-1.406 IS DISTORTING EXCESSIVELY.
   ELEMENT SPIRAL-1.408 IS DISTORTING EXCESSIVELY.
   ELEMENT SPIRAL-1.409 IS DISTORTING EXCESSIVELY.
   ELEMENT SPIRAL-1.410 IS DISTORTING EXCESSIVELY.
   ELEMENT SPIRAL-1.411 IS DISTORTING EXCESSIVELY.
   ELEMENT SPIRAL-1.412 IS DISTORTING EXCESSIVELY.
   ELEMENT SPIRAL-1.414 IS DISTORTING EXCESSIVELY.
   ELEMENT SPIRAL-1.415 IS DISTORTING EXCESSIVELY.
   ELEMENT SPIRAL-1.416 IS DISTORTING EXCESSIVELY.
   ELEMENT SPIRAL-1.419 IS DISTORTING EXCESSIVELY.
   ELEMENT SPIRAL-1.420 IS DISTORTING EXCESSIVELY.
   ELEMENT SPIRAL-1.421 IS DISTORTING EXCESSIVELY.
   ELEMENT SPIRAL-1.424 IS DISTORTING EXCESSIVELY.
   ELEMENT SPIRAL-1.425 IS DISTORTING EXCESSIVELY.
   ELEMENT SPIRAL-1.426 IS DISTORTING EXCESSIVELY.
   ELEMENT SPIRAL-1.429 IS DISTORTING EXCESSIVELY.
   ELEMENT SPIRAL-1.430 IS DISTORTING EXCESSIVELY.
   ELEMENT SPIRAL-1.432 IS DISTORTING EXCESSIVELY.
   ELEMENT SPIRAL-1.433 IS DISTORTING EXCESSIVELY.
   ELEMENT SPIRAL-1.437 IS DISTORTING EXCESSIVELY.
   ELEMENT SPIRAL-1.439 IS DISTORTING EXCESSIVELY.
   ELEMENT SPIRAL-1.440 IS DISTORTING EXCESSIVELY.
   ELEMENT SPIRAL-1.441 IS DISTORTING EXCESSIVELY.
   ELEMENT SPIRAL-1.443 IS DISTORTING EXCESSIVELY.
   ELEMENT SPIRAL-1.444 IS DISTORTING EXCESSIVELY.
   ELEMENT SPIRAL-1.451 IS DISTORTING EXCESSIVELY.
   ELEMENT SPIRAL-1.452 IS DISTORTING EXCESSIVELY.
   ELEMENT SPIRAL-1.453 IS DISTORTING EXCESSIVELY.
   ELEMENT SPIRAL-1.454 IS DISTORTING EXCESSIVELY.
   ELEMENT SPIRAL-1.457 IS DISTORTING EXCESSIVELY.
   ELEMENT SPIRAL-1.458 IS DISTORTING EXCESSIVELY.
   ELEMENT SPIRAL-1.459 IS DISTORTING EXCESSIVELY.
   ELEMENT SPIRAL-1.463 IS DISTORTING EXCESSIVELY.
   ELEMENT SPIRAL-1.465 IS DISTORTING EXCESSIVELY.
   ELEMENT SPIRAL-1.467 IS DISTORTING EXCESSIVELY.
   ELEMENT SPIRAL-1.469 IS DISTORTING EXCESSIVELY.
   ELEMENT SPIRAL-1.471 IS DISTORTING EXCESSIVELY.
   ELEMENT SPIRAL-1.475 IS DISTORTING EXCESSIVELY.
   ELEMENT SPIRAL-1.479 IS DISTORTING EXCESSIVELY.
   ELEMENT SPIRAL-1.480 IS DISTORTING EXCESSIVELY.
   ELEMENT SPIRAL-1.482 IS DISTORTING EXCESSIVELY.
   ELEMENT SPIRAL-1.484 IS DISTORTING EXCESSIVELY.
   ELEMENT SPIRAL-1.485 IS DISTORTING EXCESSIVELY.
   ELEMENT SPIRAL-1.486 IS DISTORTING EXCESSIVELY.
   ELEMENT SPIRAL-1.487 IS DISTORTING EXCESSIVELY.
   ELEMENT SPIRAL-1.488 IS DISTORTING EXCESSIVELY.
   ELEMENT SPIRAL-1.491 IS DISTORTING EXCESSIVELY.
   ELEMENT SPIRAL-1.492 IS DISTORTING EXCESSIVELY.
   ELEMENT SPIRAL-1.493 IS DISTORTING EXCESSIVELY.
   ELEMENT SPIRAL-1.494 IS DISTORTING EXCESSIVELY.
   ELEMENT SPIRAL-1.495 IS DISTORTING EXCESSIVELY.
   ELEMENT SPIRAL-1.496 IS DISTORTING EXCESSIVELY.
   ELEMENT SPIRAL-1.499 IS DISTORTING EXCESSIVELY.
   ELEMENT SPIRAL-1.500 IS DISTORTING EXCESSIVELY.
   ELEMENT SPIRAL-1.505 IS DISTORTING EXCESSIVELY.
   ELEMENT SPIRAL-1.506 IS DISTORTING EXCESSIVELY.
   ELEMENT SPIRAL-1.507 IS DISTORTING EXCESSIVELY.
   ELEMENT SPIRAL-1.508 IS DISTORTING EXCESSIVELY.
   ELEMENT SPIRAL-1.509 IS DISTORTING EXCESSIVELY.
   ELEMENT SPIRAL-1.515 IS DISTORTING EXCESSIVELY.
   ELEMENT SPIRAL-1.517 IS DISTORTING EXCESSIVELY.
   ELEMENT SPIRAL-1.521 IS DISTORTING EXCESSIVELY.
   ELEMENT SPIRAL-1.523 IS DISTORTING EXCESSIVELY.
   ELEMENT SPIRAL-1.524 IS DISTORTING EXCESSIVELY.
   ELEMENT SPIRAL-1.526 IS DISTORTING EXCESSIVELY.
   ELEMENT SPIRAL-1.533 IS DISTORTING EXCESSIVELY.
   ELEMENT SPIRAL-1.535 IS DISTORTING EXCESSIVELY.
   ELEMENT SPIRAL-1.536 IS DISTORTING EXCESSIVELY.
   ELEMENT SPIRAL-1.537 IS DISTORTING EXCESSIVELY.
   ELEMENT SPIRAL-1.538 IS DISTORTING EXCESSIVELY.
   ELEMENT SPIRAL-1.541 IS DISTORTING EXCESSIVELY.
   ELEMENT SPIRAL-1.543 IS DISTORTING EXCESSIVELY.
   ELEMENT SPIRAL-1.546 IS DISTORTING EXCESSIVELY.
   ELEMENT SPIRAL-1.547 IS DISTORTING EXCESSIVELY.
   ELEMENT SPIRAL-1.549 IS DISTORTING EXCESSIVELY.
   ELEMENT SPIRAL-1.552 IS DISTORTING EXCESSIVELY.
   ELEMENT SPIRAL-1.553 IS DISTORTING EXCESSIVELY.
   ELEMENT SPIRAL-1.556 IS DISTORTING EXCESSIVELY.
   ELEMENT SPIRAL-1.557 IS DISTORTING EXCESSIVELY.
   ELEMENT SPIRAL-1.562 IS DISTORTING EXCESSIVELY.
   ELEMENT SPIRAL-1.563 IS DISTORTING EXCESSIVELY.
   ELEMENT SPIRAL-1.566 IS DISTORTING EXCESSIVELY.
   ELEMENT SPIRAL-1.567 IS DISTORTING EXCESSIVELY.
   ELEMENT SPIRAL-1.569 IS DISTORTING EXCESSIVELY.
   ELEMENT SPIRAL-1.571 IS DISTORTING EXCESSIVELY.
   ELEMENT SPIRAL-1.572 IS DISTORTING EXCESSIVELY.
   ELEMENT SPIRAL-1.573 IS DISTORTING EXCESSIVELY.
   ELEMENT SPIRAL-1.574 IS DISTORTING EXCESSIVELY.
   ELEMENT SPIRAL-1.575 IS DISTORTING EXCESSIVELY.
   ELEMENT SPIRAL-1.576 IS DISTORTING EXCESSIVELY.
   ELEMENT SPIRAL-1.579 IS DISTORTING EXCESSIVELY.
   ELEMENT SPIRAL-1.582 IS DISTORTING EXCESSIVELY.
   ELEMENT SPIRAL-1.584 IS DISTORTING EXCESSIVELY.
   ELEMENT SPIRAL-1.585 IS DISTORTING EXCESSIVELY.
   ELEMENT SPIRAL-1.590 IS DISTORTING EXCESSIVELY.
   ELEMENT SPIRAL-1.591 IS DISTORTING EXCESSIVELY.
   ELEMENT SPIRAL-1.593 IS DISTORTING EXCESSIVELY.
   ELEMENT SPIRAL-1.596 IS DISTORTING EXCESSIVELY.
   ELEMENT SPIRAL-1.597 IS DISTORTING EXCESSIVELY.
   ELEMENT SPIRAL-1.598 IS DISTORTING EXCESSIVELY.
   ELEMENT SPIRAL-1.599 IS DISTORTING EXCESSIVELY.
   ELEMENT SPIRAL-1.600 IS DISTORTING EXCESSIVELY.
   ELEMENT SPIRAL-1.601 IS DISTORTING EXCESSIVELY.
   ELEMENT SPIRAL-1.603 IS DISTORTING EXCESSIVELY.
   ELEMENT SPIRAL-1.604 IS DISTORTING EXCESSIVELY.
   ELEMENT SPIRAL-1.605 IS DISTORTING EXCESSIVELY.
   ELEMENT SPIRAL-1.606 IS DISTORTING EXCESSIVELY.
   ELEMENT SPIRAL-1.610 IS DISTORTING EXCESSIVELY.
   ELEMENT SPIRAL-1.611 IS DISTORTING EXCESSIVELY.
   ELEMENT SPIRAL-1.614 IS DISTORTING EXCESSIVELY.
   ELEMENT SPIRAL-1.616 IS DISTORTING EXCESSIVELY.
   ELEMENT SPIRAL-1.621 IS DISTORTING EXCESSIVELY.
   ELEMENT SPIRAL-1.622 IS DISTORTING EXCESSIVELY.
   ELEMENT SPIRAL-1.623 IS DISTORTING EXCESSIVELY.
   ELEMENT SPIRAL-1.624 IS DISTORTING EXCESSIVELY.
   ELEMENT SPIRAL-1.626 IS DISTORTING EXCESSIVELY.
   ELEMENT SPIRAL-1.627 IS DISTORTING EXCESSIVELY.
   ELEMENT SPIRAL-1.628 IS DISTORTING EXCESSIVELY.
   ELEMENT SPIRAL-1.629 IS DISTORTING EXCESSIVELY.
   ELEMENT SPIRAL-1.630 IS DISTORTING EXCESSIVELY.
   ELEMENT SPIRAL-1.635 IS DISTORTING EXCESSIVELY.
   ELEMENT SPIRAL-1.636 IS DISTORTING EXCESSIVELY.
   ELEMENT SPIRAL-1.639 IS DISTORTING EXCESSIVELY.
   ELEMENT SPIRAL-1.640 IS DISTORTING EXCESSIVELY.
   ELEMENT SPIRAL-1.646 IS DISTORTING EXCESSIVELY.
   ELEMENT SPIRAL-1.649 IS DISTORTING EXCESSIVELY.
   ELEMENT SPIRAL-1.650 IS DISTORTING EXCESSIVELY.
   ELEMENT SPIRAL-1.651 IS DISTORTING EXCESSIVELY.
   ELEMENT SPIRAL-1.652 IS DISTORTING EXCESSIVELY.
   ELEMENT SPIRAL-1.653 IS DISTORTING EXCESSIVELY.
   ELEMENT SPIRAL-1.654 IS DISTORTING EXCESSIVELY.
   ELEMENT SPIRAL-1.655 IS DISTORTING EXCESSIVELY.
   ELEMENT SPIRAL-1.656 IS DISTORTING EXCESSIVELY.
   ELEMENT SPIRAL-1.658 IS DISTORTING EXCESSIVELY.
   ELEMENT SPIRAL-1.659 IS DISTORTING EXCESSIVELY.
   ELEMENT SPIRAL-1.660 IS DISTORTING EXCESSIVELY.
   ELEMENT SPIRAL-1.661 IS DISTORTING EXCESSIVELY.
   ELEMENT SPIRAL-1.662 IS DISTORTING EXCESSIVELY.
   ELEMENT SPIRAL-1.663 IS DISTORTING EXCESSIVELY.
   ELEMENT SPIRAL-1.665 IS DISTORTING EXCESSIVELY.
   ELEMENT SPIRAL-1.666 IS DISTORTING EXCESSIVELY.
   ELEMENT SPIRAL-1.667 IS DISTORTING EXCESSIVELY.
   ELEMENT SPIRAL-1.668 IS DISTORTING EXCESSIVELY.
   ELEMENT SPIRAL-1.669 IS DISTORTING EXCESSIVELY.
   ELEMENT SPIRAL-1.671 IS DISTORTING EXCESSIVELY.
   ELEMENT SPIRAL-1.672 IS DISTORTING EXCESSIVELY.
   ELEMENT SPIRAL-1.673 IS DISTORTING EXCESSIVELY.
   ELEMENT SPIRAL-1.674 IS DISTORTING EXCESSIVELY.
   ELEMENT SPIRAL-1.676 IS DISTORTING EXCESSIVELY.
   ELEMENT SPIRAL-1.678 IS DISTORTING EXCESSIVELY.
   ELEMENT SPIRAL-1.679 IS DISTORTING EXCESSIVELY.
   ELEMENT SPIRAL-1.683 IS DISTORTING EXCESSIVELY.
   ELEMENT SPIRAL-1.684 IS DISTORTING EXCESSIVELY.
   ELEMENT SPIRAL-1.685 IS DISTORTING EXCESSIVELY.
   ELEMENT SPIRAL-1.687 IS DISTORTING EXCESSIVELY.
   ELEMENT SPIRAL-1.688 IS DISTORTING EXCESSIVELY.
   ELEMENT SPIRAL-1.691 IS DISTORTING EXCESSIVELY.
   ELEMENT SPIRAL-1.692 IS DISTORTING EXCESSIVELY.
   ELEMENT SPIRAL-1.695 IS DISTORTING EXCESSIVELY.
   ELEMENT SPIRAL-1.696 IS DISTORTING EXCESSIVELY.
   ELEMENT SPIRAL-1.698 IS DISTORTING EXCESSIVELY.
   ELEMENT SPIRAL-1.700 IS DISTORTING EXCESSIVELY.
   ELEMENT SPIRAL-1.701 IS DISTORTING EXCESSIVELY.
   ELEMENT SPIRAL-1.703 IS DISTORTING EXCESSIVELY.
   ELEMENT SPIRAL-1.704 IS DISTORTING EXCESSIVELY.
   ELEMENT SPIRAL-1.705 IS DISTORTING EXCESSIVELY.
   ELEMENT SPIRAL-1.706 IS DISTORTING EXCESSIVELY.
   ELEMENT SPIRAL-1.707 IS DISTORTING EXCESSIVELY.
   ELEMENT SPIRAL-1.709 IS DISTORTING EXCESSIVELY.
   ELEMENT SPIRAL-1.712 IS DISTORTING EXCESSIVELY.
   ELEMENT SPIRAL-1.714 IS DISTORTING EXCESSIVELY.
   ELEMENT SPIRAL-1.716 IS DISTORTING EXCESSIVELY.
   ELEMENT SPIRAL-1.719 IS DISTORTING EXCESSIVELY.
   ELEMENT SPIRAL-1.720 IS DISTORTING EXCESSIVELY.
   ELEMENT SPIRAL-1.721 IS DISTORTING EXCESSIVELY.
   ELEMENT SPIRAL-1.722 IS DISTORTING EXCESSIVELY.
   ELEMENT SPIRAL-1.723 IS DISTORTING EXCESSIVELY.
   ELEMENT SPIRAL-1.724 IS DISTORTING EXCESSIVELY.
   ELEMENT SPIRAL-1.726 IS DISTORTING EXCESSIVELY.
   ELEMENT SPIRAL-1.728 IS DISTORTING EXCESSIVELY.
   ELEMENT SPIRAL-1.730 IS DISTORTING EXCESSIVELY.
   ELEMENT SPIRAL-1.731 IS DISTORTING EXCESSIVELY.
   ELEMENT SPIRAL-1.733 IS DISTORTING EXCESSIVELY.
   ELEMENT SPIRAL-1.734 IS DISTORTING EXCESSIVELY.
   ELEMENT SPIRAL-1.735 IS DISTORTING EXCESSIVELY.
   ELEMENT SPIRAL-1.736 IS DISTORTING EXCESSIVELY.
   ELEMENT SPIRAL-1.737 IS DISTORTING EXCESSIVELY.
   ELEMENT SPIRAL-1.738 IS DISTORTING EXCESSIVELY.
   ELEMENT SPIRAL-1.739 IS DISTORTING EXCESSIVELY.
   ELEMENT SPIRAL-1.740 IS DISTORTING EXCESSIVELY.
   ELEMENT SPIRAL-1.741 IS DISTORTING EXCESSIVELY.
   ELEMENT SPIRAL-1.742 IS DISTORTING EXCESSIVELY.
   ELEMENT SPIRAL-1.743 IS DISTORTING EXCESSIVELY.
   ELEMENT SPIRAL-1.745 IS DISTORTING EXCESSIVELY.
   ELEMENT SPIRAL-1.748 IS DISTORTING EXCESSIVELY.
   ELEMENT SPIRAL-1.751 IS DISTORTING EXCESSIVELY.
   ELEMENT SPIRAL-1.752 IS DISTORTING EXCESSIVELY.
   ELEMENT SPIRAL-1.756 IS DISTORTING EXCESSIVELY.
   ELEMENT SPIRAL-1.757 IS DISTORTING EXCESSIVELY.
   ELEMENT SPIRAL-1.758 IS DISTORTING EXCESSIVELY.
   ELEMENT SPIRAL-1.759 IS DISTORTING EXCESSIVELY.
   ELEMENT SPIRAL-1.760 IS DISTORTING EXCESSIVELY.
   ELEMENT SPIRAL-1.761 IS DISTORTING EXCESSIVELY.
   ELEMENT SPIRAL-1.762 IS DISTORTING EXCESSIVELY.
   ELEMENT SPIRAL-1.763 IS DISTORTING EXCESSIVELY.
   ELEMENT SPIRAL-1.764 IS DISTORTING EXCESSIVELY.
   ELEMENT SPIRAL-1.772 IS DISTORTING EXCESSIVELY.
   ELEMENT SPIRAL-1.773 IS DISTORTING EXCESSIVELY.
   ELEMENT SPIRAL-1.774 IS DISTORTING EXCESSIVELY.
   ELEMENT SPIRAL-1.775 IS DISTORTING EXCESSIVELY.
   ELEMENT SPIRAL-1.776 IS DISTORTING EXCESSIVELY.
   ELEMENT SPIRAL-1.777 IS DISTORTING EXCESSIVELY.
   ELEMENT SPIRAL-1.779 IS DISTORTING EXCESSIVELY.
   ELEMENT SPIRAL-1.780 IS DISTORTING EXCESSIVELY.
   ELEMENT SPIRAL-1.782 IS DISTORTING EXCESSIVELY.
   ELEMENT SPIRAL-1.784 IS DISTORTING EXCESSIVELY.
   ELEMENT SPIRAL-1.785 IS DISTORTING EXCESSIVELY.
   ELEMENT SPIRAL-1.786 IS DISTORTING EXCESSIVELY.
   ELEMENT SPIRAL-1.787 IS DISTORTING EXCESSIVELY.
   ELEMENT SPIRAL-1.788 IS DISTORTING EXCESSIVELY.
   ELEMENT SPIRAL-1.792 IS DISTORTING EXCESSIVELY.
   ELEMENT SPIRAL-1.793 IS DISTORTING EXCESSIVELY.
   ELEMENT SPIRAL-1.794 IS DISTORTING EXCESSIVELY.
   ELEMENT SPIRAL-1.795 IS DISTORTING EXCESSIVELY.
   ELEMENT SPIRAL-1.797 IS DISTORTING EXCESSIVELY.
   ELEMENT SPIRAL-1.799 IS DISTORTING EXCESSIVELY.
   ELEMENT SPIRAL-1.800 IS DISTORTING EXCESSIVELY.
   ELEMENT SPIRAL-1.801 IS DISTORTING EXCESSIVELY.
   ELEMENT SPIRAL-1.803 IS DISTORTING EXCESSIVELY.
   ELEMENT SPIRAL-1.806 IS DISTORTING EXCESSIVELY.
   ELEMENT SPIRAL-1.808 IS DISTORTING EXCESSIVELY.
   ELEMENT SPIRAL-1.812 IS DISTORTING EXCESSIVELY.
   ELEMENT SPIRAL-1.813 IS DISTORTING EXCESSIVELY.
   ELEMENT SPIRAL-1.814 IS DISTORTING EXCESSIVELY.
   ELEMENT SPIRAL-1.815 IS DISTORTING EXCESSIVELY.
   ELEMENT SPIRAL-1.816 IS DISTORTING EXCESSIVELY.
   ELEMENT SPIRAL-1.818 IS DISTORTING EXCESSIVELY.
   ELEMENT SPIRAL-1.819 IS DISTORTING EXCESSIVELY.
   ELEMENT SPIRAL-1.825 IS DISTORTING EXCESSIVELY.
   ELEMENT SPIRAL-1.826 IS DISTORTING EXCESSIVELY.
   ELEMENT SPIRAL-1.827 IS DISTORTING EXCESSIVELY.
   ELEMENT SPIRAL-1.828 IS DISTORTING EXCESSIVELY.
   ELEMENT SPIRAL-1.829 IS DISTORTING EXCESSIVELY.
   ELEMENT SPIRAL-1.830 IS DISTORTING EXCESSIVELY.
   ELEMENT SPIRAL-1.831 IS DISTORTING EXCESSIVELY.
   ELEMENT SPIRAL-1.835 IS DISTORTING EXCESSIVELY.
   ELEMENT SPIRAL-1.836 IS DISTORTING EXCESSIVELY.
   ELEMENT SPIRAL-1.837 IS DISTORTING EXCESSIVELY.
   ELEMENT SPIRAL-1.839 IS DISTORTING EXCESSIVELY.
   ELEMENT SPIRAL-1.842 IS DISTORTING EXCESSIVELY.
   ELEMENT SPIRAL-1.843 IS DISTORTING EXCESSIVELY.
   ELEMENT SPIRAL-1.844 IS DISTORTING EXCESSIVELY.
   ELEMENT SPIRAL-1.845 IS DISTORTING EXCESSIVELY.
   ELEMENT SPIRAL-1.846 IS DISTORTING EXCESSIVELY.
   ELEMENT SPIRAL-1.847 IS DISTORTING EXCESSIVELY.
   ELEMENT SPIRAL-1.848 IS DISTORTING EXCESSIVELY.
   ELEMENT SPIRAL-1.850 IS DISTORTING EXCESSIVELY.
   ELEMENT SPIRAL-1.854 IS DISTORTING EXCESSIVELY.
   ELEMENT SPIRAL-1.855 IS DISTORTING EXCESSIVELY.
   ELEMENT SPIRAL-1.856 IS DISTORTING EXCESSIVELY.
   ELEMENT SPIRAL-1.858 IS DISTORTING EXCESSIVELY.
   ELEMENT SPIRAL-1.862 IS DISTORTING EXCESSIVELY.
   ELEMENT SPIRAL-1.863 IS DISTORTING EXCESSIVELY.
   ELEMENT SPIRAL-1.865 IS DISTORTING EXCESSIVELY.
   ELEMENT SPIRAL-1.866 IS DISTORTING EXCESSIVELY.
   ELEMENT SPIRAL-1.867 IS DISTORTING EXCESSIVELY.
   ELEMENT SPIRAL-1.869 IS DISTORTING EXCESSIVELY.
   ELEMENT SPIRAL-1.870 IS DISTORTING EXCESSIVELY.
   ELEMENT SPIRAL-1.871 IS DISTORTING EXCESSIVELY.
   ELEMENT SPIRAL-1.873 IS DISTORTING EXCESSIVELY.
   ELEMENT SPIRAL-1.874 IS DISTORTING EXCESSIVELY.
   ELEMENT SPIRAL-1.876 IS DISTORTING EXCESSIVELY.
   ELEMENT SPIRAL-1.880 IS DISTORTING EXCESSIVELY.
   ELEMENT SPIRAL-1.881 IS DISTORTING EXCESSIVELY.
   ELEMENT SPIRAL-1.883 IS DISTORTING EXCESSIVELY.
   ELEMENT SPIRAL-1.884 IS DISTORTING EXCESSIVELY.
   ELEMENT SPIRAL-1.887 IS DISTORTING EXCESSIVELY.
   ELEMENT SPIRAL-1.888 IS DISTORTING EXCESSIVELY.
   ELEMENT SPIRAL-1.889 IS DISTORTING EXCESSIVELY.
   ELEMENT SPIRAL-1.891 IS DISTORTING EXCESSIVELY.
   ELEMENT SPIRAL-1.892 IS DISTORTING EXCESSIVELY.
   ELEMENT SPIRAL-1.893 IS DISTORTING EXCESSIVELY.
   ELEMENT SPIRAL-1.894 IS DISTORTING EXCESSIVELY.
   ELEMENT SPIRAL-1.895 IS DISTORTING EXCESSIVELY.
   ELEMENT SPIRAL-1.896 IS DISTORTING EXCESSIVELY.
   ELEMENT SPIRAL-1.899 IS DISTORTING EXCESSIVELY.
   ELEMENT SPIRAL-1.900 IS DISTORTING EXCESSIVELY.
   ELEMENT SPIRAL-1.901 IS DISTORTING EXCESSIVELY.
   ELEMENT SPIRAL-1.903 IS DISTORTING EXCESSIVELY.
   ELEMENT SPIRAL-1.908 IS DISTORTING EXCESSIVELY.
   ELEMENT SPIRAL-1.909 IS DISTORTING EXCESSIVELY.
   ELEMENT SPIRAL-1.910 IS DISTORTING EXCESSIVELY.
   ELEMENT SPIRAL-1.911 IS DISTORTING EXCESSIVELY.
   ELEMENT SPIRAL-1.912 IS DISTORTING EXCESSIVELY.
   ELEMENT SPIRAL-1.913 IS DISTORTING EXCESSIVELY.
   ELEMENT SPIRAL-1.914 IS DISTORTING EXCESSIVELY.
   ELEMENT SPIRAL-1.915 IS DISTORTING EXCESSIVELY.
   ELEMENT SPIRAL-1.916 IS DISTORTING EXCESSIVELY.
   ELEMENT SPIRAL-1.918 IS DISTORTING EXCESSIVELY.
   ELEMENT SPIRAL-1.919 IS DISTORTING EXCESSIVELY.
   ELEMENT SPIRAL-1.920 IS DISTORTING EXCESSIVELY.
   ELEMENT SPIRAL-1.922 IS DISTORTING EXCESSIVELY.
   ELEMENT SPIRAL-1.923 IS DISTORTING EXCESSIVELY.
   ELEMENT SPIRAL-1.925 IS DISTORTING EXCESSIVELY.
   ELEMENT SPIRAL-1.934 IS DISTORTING EXCESSIVELY.
   ELEMENT SPIRAL-1.936 IS DISTORTING EXCESSIVELY.
   ELEMENT SPIRAL-1.937 IS DISTORTING EXCESSIVELY.
   ELEMENT SPIRAL-1.938 IS DISTORTING EXCESSIVELY.
   ELEMENT SPIRAL-1.941 IS DISTORTING EXCESSIVELY.
   ELEMENT SPIRAL-1.942 IS DISTORTING EXCESSIVELY.
   ELEMENT SPIRAL-1.943 IS DISTORTING EXCESSIVELY.
   ELEMENT SPIRAL-1.944 IS DISTORTING EXCESSIVELY.
   ELEMENT SPIRAL-1.945 IS DISTORTING EXCESSIVELY.
   ELEMENT SPIRAL-1.947 IS DISTORTING EXCESSIVELY.
   ELEMENT SPIRAL-1.948 IS DISTORTING EXCESSIVELY.
   ELEMENT SPIRAL-1.949 IS DISTORTING EXCESSIVELY.
   ELEMENT SPIRAL-1.950 IS DISTORTING EXCESSIVELY.
   ELEMENT SPIRAL-1.953 IS DISTORTING EXCESSIVELY.
   ELEMENT SPIRAL-1.955 IS DISTORTING EXCESSIVELY.
   ELEMENT SPIRAL-1.957 IS DISTORTING EXCESSIVELY.
   ELEMENT SPIRAL-1.959 IS DISTORTING EXCESSIVELY.
   ELEMENT SPIRAL-1.960 IS DISTORTING EXCESSIVELY.
   ELEMENT SPIRAL-1.961 IS DISTORTING EXCESSIVELY.
   ELEMENT SPIRAL-1.963 IS DISTORTING EXCESSIVELY.
   ELEMENT SPIRAL-1.964 IS DISTORTING EXCESSIVELY.
   ELEMENT SPIRAL-1.967 IS DISTORTING EXCESSIVELY.
   ELEMENT SPIRAL-1.968 IS DISTORTING EXCESSIVELY.
   ELEMENT SPIRAL-1.970 IS DISTORTING EXCESSIVELY.
   ELEMENT SPIRAL-1.971 IS DISTORTING EXCESSIVELY.
   ELEMENT SPIRAL-1.974 IS DISTORTING EXCESSIVELY.
   ELEMENT SPIRAL-1.975 IS DISTORTING EXCESSIVELY.
   ELEMENT SPIRAL-1.976 IS DISTORTING EXCESSIVELY.
   ELEMENT SPIRAL-1.977 IS DISTORTING EXCESSIVELY.
   ELEMENT SPIRAL-1.978 IS DISTORTING EXCESSIVELY.
   ELEMENT SPIRAL-1.979 IS DISTORTING EXCESSIVELY.
   ELEMENT SPIRAL-1.980 IS DISTORTING EXCESSIVELY.
   ELEMENT SPIRAL-1.982 IS DISTORTING EXCESSIVELY.
   ELEMENT SPIRAL-1.983 IS DISTORTING EXCESSIVELY.
   ELEMENT SPIRAL-1.984 IS DISTORTING EXCESSIVELY.
   ELEMENT SPIRAL-1.985 IS DISTORTING EXCESSIVELY.
   ELEMENT SPIRAL-1.987 IS DISTORTING EXCESSIVELY.
   ELEMENT SPIRAL-1.988 IS DISTORTING EXCESSIVELY.
   ELEMENT SPIRAL-1.992 IS DISTORTING EXCESSIVELY.
   ELEMENT SPIRAL-1.995 IS DISTORTING EXCESSIVELY.
   ELEMENT SPIRAL-1.997 IS DISTORTING EXCESSIVELY.
   ELEMENT SPIRAL-1.1000 IS DISTORTING EXCESSIVELY.
   ELEMENT SPIRAL-1.1003 IS DISTORTING EXCESSIVELY.
   ELEMENT SPIRAL-1.1007 IS DISTORTING EXCESSIVELY.
   ELEMENT SPIRAL-1.1008 IS DISTORTING EXCESSIVELY.
   ELEMENT SPIRAL-1.1009 IS DISTORTING EXCESSIVELY.
   ELEMENT SPIRAL-1.1010 IS DISTORTING EXCESSIVELY.
   ELEMENT SPIRAL-1.1011 IS DISTORTING EXCESSIVELY.
   ELEMENT SPIRAL-1.1013 IS DISTORTING EXCESSIVELY.
   ELEMENT SPIRAL-1.1014 IS DISTORTING EXCESSIVELY.
   ELEMENT SPIRAL-1.1016 IS DISTORTING EXCESSIVELY.
   ELEMENT SPIRAL-1.1018 IS DISTORTING EXCESSIVELY.
   ELEMENT SPIRAL-1.1019 IS DISTORTING EXCESSIVELY.
   ELEMENT SPIRAL-1.1021 IS DISTORTING EXCESSIVELY.
   ELEMENT SPIRAL-1.1022 IS DISTORTING EXCESSIVELY.
   ELEMENT SPIRAL-1.1023 IS DISTORTING EXCESSIVELY.
   ELEMENT SPIRAL-1.1024 IS DISTORTING EXCESSIVELY.
   ELEMENT SPIRAL-1.1025 IS DISTORTING EXCESSIVELY.
   ELEMENT SPIRAL-1.1027 IS DISTORTING EXCESSIVELY.
   ELEMENT SPIRAL-1.1029 IS DISTORTING EXCESSIVELY.
   ELEMENT SPIRAL-1.1030 IS DISTORTING EXCESSIVELY.
   ELEMENT SPIRAL-1.1031 IS DISTORTING EXCESSIVELY.
   ELEMENT SPIRAL-1.1037 IS DISTORTING EXCESSIVELY.
   ELEMENT SPIRAL-1.1039 IS DISTORTING EXCESSIVELY.
   ELEMENT SPIRAL-1.1040 IS DISTORTING EXCESSIVELY.
   ELEMENT SPIRAL-1.1042 IS DISTORTING EXCESSIVELY.
   ELEMENT SPIRAL-1.1043 IS DISTORTING EXCESSIVELY.
   ELEMENT SPIRAL-1.1045 IS DISTORTING EXCESSIVELY.
   ELEMENT SPIRAL-1.1046 IS DISTORTING EXCESSIVELY.
   ELEMENT SPIRAL-1.1050 IS DISTORTING EXCESSIVELY.
   ELEMENT SPIRAL-1.1052 IS DISTORTING EXCESSIVELY.
   ELEMENT SPIRAL-1.1056 IS DISTORTING EXCESSIVELY.
   ELEMENT SPIRAL-1.1060 IS DISTORTING EXCESSIVELY.
   ELEMENT SPIRAL-1.1061 IS DISTORTING EXCESSIVELY.
   ELEMENT SPIRAL-1.1065 IS DISTORTING EXCESSIVELY.
   ELEMENT SPIRAL-1.1067 IS DISTORTING EXCESSIVELY.
   ELEMENT SPIRAL-1.1068 IS DISTORTING EXCESSIVELY.
   ELEMENT SPIRAL-1.1070 IS DISTORTING EXCESSIVELY.
   ELEMENT SPIRAL-1.1071 IS DISTORTING EXCESSIVELY.
   ELEMENT SPIRAL-1.1076 IS DISTORTING EXCESSIVELY.
   ELEMENT SPIRAL-1.1078 IS DISTORTING EXCESSIVELY.
   ELEMENT SPIRAL-1.1080 IS DISTORTING EXCESSIVELY.
   ELEMENT SPIRAL-1.1083 IS DISTORTING EXCESSIVELY.
   ELEMENT SPIRAL-1.1084 IS DISTORTING EXCESSIVELY.
   ELEMENT SPIRAL-1.1085 IS DISTORTING EXCESSIVELY.
   ELEMENT SPIRAL-1.1086 IS DISTORTING EXCESSIVELY.
   ELEMENT SPIRAL-1.1090 IS DISTORTING EXCESSIVELY.
   ELEMENT SPIRAL-1.1093 IS DISTORTING EXCESSIVELY.
   ELEMENT SPIRAL-1.1097 IS DISTORTING EXCESSIVELY.
   ELEMENT SPIRAL-1.1099 IS DISTORTING EXCESSIVELY.
   ELEMENT SPIRAL-1.1100 IS DISTORTING EXCESSIVELY.
   ELEMENT SPIRAL-1.1101 IS DISTORTING EXCESSIVELY.
   ELEMENT SPIRAL-1.1105 IS DISTORTING EXCESSIVELY.
   ELEMENT SPIRAL-1.1109 IS DISTORTING EXCESSIVELY.
   ELEMENT SPIRAL-1.1110 IS DISTORTING EXCESSIVELY.
   ELEMENT SPIRAL-1.1111 IS DISTORTING EXCESSIVELY.
   ELEMENT SPIRAL-1.1112 IS DISTORTING EXCESSIVELY.
   ELEMENT SPIRAL-1.1113 IS DISTORTING EXCESSIVELY.
   ELEMENT SPIRAL-1.1115 IS DISTORTING EXCESSIVELY.
   ELEMENT SPIRAL-1.1116 IS DISTORTING EXCESSIVELY.
   ELEMENT SPIRAL-1.1117 IS DISTORTING EXCESSIVELY.
   ELEMENT SPIRAL-1.1119 IS DISTORTING EXCESSIVELY.
   ELEMENT SPIRAL-1.1122 IS DISTORTING EXCESSIVELY.
   ELEMENT SPIRAL-1.1123 IS DISTORTING EXCESSIVELY.
   ELEMENT SPIRAL-1.1130 IS DISTORTING EXCESSIVELY.
   ELEMENT SPIRAL-1.1131 IS DISTORTING EXCESSIVELY.
   ELEMENT SPIRAL-1.1134 IS DISTORTING EXCESSIVELY.
   ELEMENT SPIRAL-1.1139 IS DISTORTING EXCESSIVELY.
   ELEMENT SPIRAL-1.1140 IS DISTORTING EXCESSIVELY.
   ELEMENT SPIRAL-1.1144 IS DISTORTING EXCESSIVELY.
   ELEMENT SPIRAL-1.1145 IS DISTORTING EXCESSIVELY.
   ELEMENT SPIRAL-1.1146 IS DISTORTING EXCESSIVELY.
   ELEMENT SPIRAL-1.1148 IS DISTORTING EXCESSIVELY.
   ELEMENT SPIRAL-1.1153 IS DISTORTING EXCESSIVELY.
   ELEMENT SPIRAL-1.1154 IS DISTORTING EXCESSIVELY.
   ELEMENT SPIRAL-1.1156 IS DISTORTING EXCESSIVELY.
   ELEMENT SPIRAL-1.1158 IS DISTORTING EXCESSIVELY.
   ELEMENT SPIRAL-1.1159 IS DISTORTING EXCESSIVELY.
   ELEMENT SPIRAL-1.1168 IS DISTORTING EXCESSIVELY.
   ELEMENT SPIRAL-1.1170 IS DISTORTING EXCESSIVELY.
   ELEMENT SPIRAL-1.1173 IS DISTORTING EXCESSIVELY.
   ELEMENT SPIRAL-1.1175 IS DISTORTING EXCESSIVELY.
   ELEMENT SPIRAL-1.1177 IS DISTORTING EXCESSIVELY.
   ELEMENT SPIRAL-1.1179 IS DISTORTING EXCESSIVELY.
   ELEMENT SPIRAL-1.1182 IS DISTORTING EXCESSIVELY.
   ELEMENT SPIRAL-1.1185 IS DISTORTING EXCESSIVELY.
   ELEMENT SPIRAL-1.1189 IS DISTORTING EXCESSIVELY.
   ELEMENT SPIRAL-1.1191 IS DISTORTING EXCESSIVELY.
   ELEMENT SPIRAL-1.1192 IS DISTORTING EXCESSIVELY.
   ELEMENT SPIRAL-1.1195 IS DISTORTING EXCESSIVELY.
   ELEMENT SPIRAL-1.1196 IS DISTORTING EXCESSIVELY.
   ELEMENT SPIRAL-1.1198 IS DISTORTING EXCESSIVELY.
   ELEMENT SPIRAL-1.1200 IS DISTORTING EXCESSIVELY.
   ELEMENT SPIRAL-1.1201 IS DISTORTING EXCESSIVELY.
   ELEMENT SPIRAL-1.1204 IS DISTORTING EXCESSIVELY.
   ELEMENT SPIRAL-1.1206 IS DISTORTING EXCESSIVELY.
   ELEMENT SPIRAL-1.1207 IS DISTORTING EXCESSIVELY.
   ELEMENT SPIRAL-1.1209 IS DISTORTING EXCESSIVELY.
   ELEMENT SPIRAL-1.1210 IS DISTORTING EXCESSIVELY.
   ELEMENT SPIRAL-1.1211 IS DISTORTING EXCESSIVELY.
   ELEMENT SPIRAL-1.1212 IS DISTORTING EXCESSIVELY.
   ELEMENT SPIRAL-1.1213 IS DISTORTING EXCESSIVELY.
   ELEMENT SPIRAL-1.1214 IS DISTORTING EXCESSIVELY.
   ELEMENT SPIRAL-1.1215 IS DISTORTING EXCESSIVELY.
   ELEMENT SPIRAL-1.1218 IS DISTORTING EXCESSIVELY.
   ELEMENT SPIRAL-1.1220 IS DISTORTING EXCESSIVELY.
   ELEMENT SPIRAL-1.1223 IS DISTORTING EXCESSIVELY.
   ELEMENT SPIRAL-1.1236 IS DISTORTING EXCESSIVELY.
   ELEMENT SPIRAL-1.1238 IS DISTORTING EXCESSIVELY.
   ELEMENT SPIRAL-1.1240 IS DISTORTING EXCESSIVELY.
   ELEMENT SPIRAL-1.1243 IS DISTORTING EXCESSIVELY.
   ELEMENT SPIRAL-1.1245 IS DISTORTING EXCESSIVELY.
   ELEMENT SPIRAL-1.1246 IS DISTORTING EXCESSIVELY.
   ELEMENT SPIRAL-1.1248 IS DISTORTING EXCESSIVELY.
   ELEMENT SPIRAL-1.1249 IS DISTORTING EXCESSIVELY.
   ELEMENT SPIRAL-1.1250 IS DISTORTING EXCESSIVELY.
   ELEMENT SPIRAL-1.1251 IS DISTORTING EXCESSIVELY.
   ELEMENT SPIRAL-1.1255 IS DISTORTING EXCESSIVELY.
   ELEMENT SPIRAL-1.1256 IS DISTORTING EXCESSIVELY.
   ELEMENT SPIRAL-1.1257 IS DISTORTING EXCESSIVELY.
   ELEMENT SPIRAL-1.1258 IS DISTORTING EXCESSIVELY.
   ELEMENT SPIRAL-1.1260 IS DISTORTING EXCESSIVELY.
   ELEMENT SPIRAL-1.1263 IS DISTORTING EXCESSIVELY.
   ELEMENT SPIRAL-1.1265 IS DISTORTING EXCESSIVELY.
   ELEMENT SPIRAL-1.1267 IS DISTORTING EXCESSIVELY.
   ELEMENT SPIRAL-1.1269 IS DISTORTING EXCESSIVELY.
   ELEMENT SPIRAL-1.1270 IS DISTORTING EXCESSIVELY.
   ELEMENT SPIRAL-1.1271 IS DISTORTING EXCESSIVELY.
   ELEMENT SPIRAL-1.1272 IS DISTORTING EXCESSIVELY.
   ELEMENT SPIRAL-1.1275 IS DISTORTING EXCESSIVELY.
   ELEMENT SPIRAL-1.1276 IS DISTORTING EXCESSIVELY.
   ELEMENT SPIRAL-1.1281 IS DISTORTING EXCESSIVELY.
   ELEMENT SPIRAL-1.1282 IS DISTORTING EXCESSIVELY.
   ELEMENT SPIRAL-1.1285 IS DISTORTING EXCESSIVELY.
   ELEMENT SPIRAL-1.1286 IS DISTORTING EXCESSIVELY.
   ELEMENT SPIRAL-1.1287 IS DISTORTING EXCESSIVELY.
   ELEMENT SPIRAL-1.1288 IS DISTORTING EXCESSIVELY.
   ELEMENT SPIRAL-1.1290 IS DISTORTING EXCESSIVELY.
   ELEMENT SPIRAL-1.1291 IS DISTORTING EXCESSIVELY.
   ELEMENT SPIRAL-1.1293 IS DISTORTING EXCESSIVELY.
   ELEMENT SPIRAL-1.1295 IS DISTORTING EXCESSIVELY.
   ELEMENT SPIRAL-1.1297 IS DISTORTING EXCESSIVELY.
   ELEMENT SPIRAL-1.1299 IS DISTORTING EXCESSIVELY.
   ELEMENT SPIRAL-1.1300 IS DISTORTING EXCESSIVELY.
   ELEMENT SPIRAL-1.1301 IS DISTORTING EXCESSIVELY.
   ELEMENT SPIRAL-1.1307 IS DISTORTING EXCESSIVELY.
   ELEMENT SPIRAL-1.1308 IS DISTORTING EXCESSIVELY.
   ELEMENT SPIRAL-1.1309 IS DISTORTING EXCESSIVELY.
   ELEMENT SPIRAL-1.1310 IS DISTORTING EXCESSIVELY.
   ELEMENT SPIRAL-1.1313 IS DISTORTING EXCESSIVELY.
   ELEMENT SPIRAL-1.1316 IS DISTORTING EXCESSIVELY.
   ELEMENT SPIRAL-1.1317 IS DISTORTING EXCESSIVELY.
   ELEMENT SPIRAL-1.1318 IS DISTORTING EXCESSIVELY.
   ELEMENT SPIRAL-1.1320 IS DISTORTING EXCESSIVELY.
   ELEMENT SPIRAL-1.1321 IS DISTORTING EXCESSIVELY.
   ELEMENT SPIRAL-1.1323 IS DISTORTING EXCESSIVELY.
   ELEMENT SPIRAL-1.1330 IS DISTORTING EXCESSIVELY.
   ELEMENT SPIRAL-1.1332 IS DISTORTING EXCESSIVELY.
   ELEMENT SPIRAL-1.1335 IS DISTORTING EXCESSIVELY.
   ELEMENT SPIRAL-1.1337 IS DISTORTING EXCESSIVELY.
   ELEMENT SPIRAL-1.1338 IS DISTORTING EXCESSIVELY.
   ELEMENT SPIRAL-1.1339 IS DISTORTING EXCESSIVELY.
   ELEMENT SPIRAL-1.1340 IS DISTORTING EXCESSIVELY.
   ELEMENT SPIRAL-1.1342 IS DISTORTING EXCESSIVELY.
   ELEMENT SPIRAL-1.1343 IS DISTORTING EXCESSIVELY.
   ELEMENT SPIRAL-1.1345 IS DISTORTING EXCESSIVELY.
   ELEMENT SPIRAL-1.1346 IS DISTORTING EXCESSIVELY.
   ELEMENT SPIRAL-1.1351 IS DISTORTING EXCESSIVELY.
   ELEMENT SPIRAL-1.1352 IS DISTORTING EXCESSIVELY.
   ELEMENT SPIRAL-1.1353 IS DISTORTING EXCESSIVELY.
   ELEMENT SPIRAL-1.1354 IS DISTORTING EXCESSIVELY.
   ELEMENT SPIRAL-1.1355 IS DISTORTING EXCESSIVELY.
   ELEMENT SPIRAL-1.1358 IS DISTORTING EXCESSIVELY.
   ELEMENT SPIRAL-1.1362 IS DISTORTING EXCESSIVELY.
   ELEMENT SPIRAL-1.1364 IS DISTORTING EXCESSIVELY.
   ELEMENT SPIRAL-1.1366 IS DISTORTING EXCESSIVELY.
   ELEMENT SPIRAL-1.1367 IS DISTORTING EXCESSIVELY.
   ELEMENT SPIRAL-1.1368 IS DISTORTING EXCESSIVELY.
   ELEMENT SPIRAL-1.1369 IS DISTORTING EXCESSIVELY.
   ELEMENT SPIRAL-1.1372 IS DISTORTING EXCESSIVELY.
   ELEMENT SPIRAL-1.1374 IS DISTORTING EXCESSIVELY.
   ELEMENT SPIRAL-1.1375 IS DISTORTING EXCESSIVELY.
   ELEMENT SPIRAL-1.1377 IS DISTORTING EXCESSIVELY.
   ELEMENT SPIRAL-1.1378 IS DISTORTING EXCESSIVELY.
   ELEMENT SPIRAL-1.1379 IS DISTORTING EXCESSIVELY.
   ELEMENT SPIRAL-1.1380 IS DISTORTING EXCESSIVELY.
   ELEMENT SPIRAL-1.1382 IS DISTORTING EXCESSIVELY.
   ELEMENT SPIRAL-1.1384 IS DISTORTING EXCESSIVELY.
   ELEMENT SPIRAL-1.1386 IS DISTORTING EXCESSIVELY.
   ELEMENT SPIRAL-1.1387 IS DISTORTING EXCESSIVELY.
   ELEMENT SPIRAL-1.1389 IS DISTORTING EXCESSIVELY.
   ELEMENT SPIRAL-1.1394 IS DISTORTING EXCESSIVELY.
   ELEMENT SPIRAL-1.1397 IS DISTORTING EXCESSIVELY.
   ELEMENT SPIRAL-1.1399 IS DISTORTING EXCESSIVELY.
   ELEMENT SPIRAL-1.1400 IS DISTORTING EXCESSIVELY.
   ELEMENT SPIRAL-1.1401 IS DISTORTING EXCESSIVELY.
   ELEMENT SPIRAL-1.1405 IS DISTORTING EXCESSIVELY.
   ELEMENT SPIRAL-1.1406 IS DISTORTING EXCESSIVELY.
   ELEMENT SPIRAL-1.1409 IS DISTORTING EXCESSIVELY.
   ELEMENT SPIRAL-1.1410 IS DISTORTING EXCESSIVELY.
   ELEMENT SPIRAL-1.1414 IS DISTORTING EXCESSIVELY.
   ELEMENT SPIRAL-1.1416 IS DISTORTING EXCESSIVELY.
   ELEMENT SPIRAL-1.1418 IS DISTORTING EXCESSIVELY.
   ELEMENT SPIRAL-1.1419 IS DISTORTING EXCESSIVELY.
   ELEMENT SPIRAL-1.1420 IS DISTORTING EXCESSIVELY.
   ELEMENT SPIRAL-1.1424 IS DISTORTING EXCESSIVELY.
   ELEMENT SPIRAL-1.1425 IS DISTORTING EXCESSIVELY.
   ELEMENT SPIRAL-1.1426 IS DISTORTING EXCESSIVELY.
   ELEMENT SPIRAL-1.1429 IS DISTORTING EXCESSIVELY.
   ELEMENT SPIRAL-1.1430 IS DISTORTING EXCESSIVELY.
   ELEMENT SPIRAL-1.1431 IS DISTORTING EXCESSIVELY.
   ELEMENT SPIRAL-1.1432 IS DISTORTING EXCESSIVELY.
   ELEMENT SPIRAL-1.1433 IS DISTORTING EXCESSIVELY.
   ELEMENT SPIRAL-1.1434 IS DISTORTING EXCESSIVELY.
   ELEMENT SPIRAL-1.1436 IS DISTORTING EXCESSIVELY.
   ELEMENT SPIRAL-1.1439 IS DISTORTING EXCESSIVELY.
   ELEMENT SPIRAL-1.1440 IS DISTORTING EXCESSIVELY.
   ELEMENT SPIRAL-1.1442 IS DISTORTING EXCESSIVELY.
   ELEMENT SPIRAL-1.1444 IS DISTORTING EXCESSIVELY.
   ELEMENT SPIRAL-1.1446 IS DISTORTING EXCESSIVELY.
   ELEMENT SPIRAL-1.1447 IS DISTORTING EXCESSIVELY.
   ELEMENT SPIRAL-1.1448 IS DISTORTING EXCESSIVELY.
   ELEMENT SPIRAL-1.1449 IS DISTORTING EXCESSIVELY.
   ELEMENT SPIRAL-1.1450 IS DISTORTING EXCESSIVELY.
   ELEMENT SPIRAL-1.1451 IS DISTORTING EXCESSIVELY.
   ELEMENT SPIRAL-1.1452 IS DISTORTING EXCESSIVELY.
   ELEMENT SPIRAL-1.1453 IS DISTORTING EXCESSIVELY.
   ELEMENT SPIRAL-1.1455 IS DISTORTING EXCESSIVELY.
   ELEMENT SPIRAL-1.1456 IS DISTORTING EXCESSIVELY.
   ELEMENT SPIRAL-1.1457 IS DISTORTING EXCESSIVELY.
   ELEMENT SPIRAL-1.1460 IS DISTORTING EXCESSIVELY.
   ELEMENT SPIRAL-1.1463 IS DISTORTING EXCESSIVELY.
   ELEMENT SPIRAL-1.1465 IS DISTORTING EXCESSIVELY.
   ELEMENT SPIRAL-1.1471 IS DISTORTING EXCESSIVELY.
   ELEMENT SPIRAL-1.1474 IS DISTORTING EXCESSIVELY.
   ELEMENT SPIRAL-1.1475 IS DISTORTING EXCESSIVELY.
   ELEMENT SPIRAL-1.1480 IS DISTORTING EXCESSIVELY.
   ELEMENT SPIRAL-1.1483 IS DISTORTING EXCESSIVELY.
   ELEMENT SPIRAL-1.1484 IS DISTORTING EXCESSIVELY.
   ELEMENT SPIRAL-1.1485 IS DISTORTING EXCESSIVELY.
   ELEMENT SPIRAL-1.1486 IS DISTORTING EXCESSIVELY.
   ELEMENT SPIRAL-1.1487 IS DISTORTING EXCESSIVELY.
   ELEMENT SPIRAL-1.1488 IS DISTORTING EXCESSIVELY.
   ELEMENT SPIRAL-1.1489 IS DISTORTING EXCESSIVELY.
   ELEMENT SPIRAL-1.1491 IS DISTORTING EXCESSIVELY.
   ELEMENT SPIRAL-1.1494 IS DISTORTING EXCESSIVELY.
   ELEMENT SPIRAL-1.1497 IS DISTORTING EXCESSIVELY.
   ELEMENT SPIRAL-1.1499 IS DISTORTING EXCESSIVELY.
   ELEMENT SPIRAL-1.1502 IS DISTORTING EXCESSIVELY.
   ELEMENT SPIRAL-1.1505 IS DISTORTING EXCESSIVELY.
   ELEMENT SPIRAL-1.1506 IS DISTORTING EXCESSIVELY.
   ELEMENT SPIRAL-1.1507 IS DISTORTING EXCESSIVELY.
   ELEMENT SPIRAL-1.1508 IS DISTORTING EXCESSIVELY.
   ELEMENT SPIRAL-1.1509 IS DISTORTING EXCESSIVELY.
   ELEMENT SPIRAL-1.1510 IS DISTORTING EXCESSIVELY.
   ELEMENT SPIRAL-1.1511 IS DISTORTING EXCESSIVELY.
   ELEMENT SPIRAL-1.1512 IS DISTORTING EXCESSIVELY.
   ELEMENT SPIRAL-1.1513 IS DISTORTING EXCESSIVELY.
   ELEMENT SPIRAL-1.1514 IS DISTORTING EXCESSIVELY.
   ELEMENT SPIRAL-1.1515 IS DISTORTING EXCESSIVELY.
   ELEMENT SPIRAL-1.1516 IS DISTORTING EXCESSIVELY.
   ELEMENT SPIRAL-1.1523 IS DISTORTING EXCESSIVELY.
   ELEMENT SPIRAL-1.1526 IS DISTORTING EXCESSIVELY.
   ELEMENT SPIRAL-1.1527 IS DISTORTING EXCESSIVELY.
   ELEMENT SPIRAL-1.1530 IS DISTORTING EXCESSIVELY.
   ELEMENT SPIRAL-1.1532 IS DISTORTING EXCESSIVELY.
   ELEMENT SPIRAL-1.1533 IS DISTORTING EXCESSIVELY.
   ELEMENT SPIRAL-1.1534 IS DISTORTING EXCESSIVELY.
   ELEMENT SPIRAL-1.1537 IS DISTORTING EXCESSIVELY.
   ELEMENT SPIRAL-1.1539 IS DISTORTING EXCESSIVELY.
   ELEMENT SPIRAL-1.1540 IS DISTORTING EXCESSIVELY.
   ELEMENT SPIRAL-1.1541 IS DISTORTING EXCESSIVELY.
   ELEMENT SPIRAL-1.1544 IS DISTORTING EXCESSIVELY.
   ELEMENT SPIRAL-1.1546 IS DISTORTING EXCESSIVELY.
   ELEMENT SPIRAL-1.1548 IS DISTORTING EXCESSIVELY.
   ELEMENT SPIRAL-1.1550 IS DISTORTING EXCESSIVELY.
   ELEMENT SPIRAL-1.1552 IS DISTORTING EXCESSIVELY.
   ELEMENT SPIRAL-1.1553 IS DISTORTING EXCESSIVELY.
   ELEMENT SPIRAL-1.1556 IS DISTORTING EXCESSIVELY.
   ELEMENT SPIRAL-1.1558 IS DISTORTING EXCESSIVELY.
   ELEMENT SPIRAL-1.1559 IS DISTORTING EXCESSIVELY.
   ELEMENT SPIRAL-1.1564 IS DISTORTING EXCESSIVELY.
   ELEMENT SPIRAL-1.1566 IS DISTORTING EXCESSIVELY.
   ELEMENT SPIRAL-1.1570 IS DISTORTING EXCESSIVELY.
   ELEMENT SPIRAL-1.1571 IS DISTORTING EXCESSIVELY.
   ELEMENT SPIRAL-1.1576 IS DISTORTING EXCESSIVELY.
   ELEMENT SPIRAL-1.1578 IS DISTORTING EXCESSIVELY.
   ELEMENT SPIRAL-1.1579 IS DISTORTING EXCESSIVELY.
   ELEMENT SPIRAL-1.1580 IS DISTORTING EXCESSIVELY.
   ELEMENT SPIRAL-1.1585 IS DISTORTING EXCESSIVELY.
   ELEMENT SPIRAL-1.1586 IS DISTORTING EXCESSIVELY.
   ELEMENT SPIRAL-1.1589 IS DISTORTING EXCESSIVELY.
   ELEMENT SPIRAL-1.1593 IS DISTORTING EXCESSIVELY.
   ELEMENT SPIRAL-1.1594 IS DISTORTING EXCESSIVELY.
   ELEMENT SPIRAL-1.1595 IS DISTORTING EXCESSIVELY.
   ELEMENT SPIRAL-1.1596 IS DISTORTING EXCESSIVELY.
   ELEMENT SPIRAL-1.1597 IS DISTORTING EXCESSIVELY.
   ELEMENT SPIRAL-1.1603 IS DISTORTING EXCESSIVELY.
   ELEMENT SPIRAL-1.1604 IS DISTORTING EXCESSIVELY.
   ELEMENT SPIRAL-1.1605 IS DISTORTING EXCESSIVELY.
   ELEMENT SPIRAL-1.1606 IS DISTORTING EXCESSIVELY.
   ELEMENT SPIRAL-1.1607 IS DISTORTING EXCESSIVELY.
   ELEMENT SPIRAL-1.1611 IS DISTORTING EXCESSIVELY.
   ELEMENT SPIRAL-1.1616 IS DISTORTING EXCESSIVELY.
   ELEMENT SPIRAL-1.1619 IS DISTORTING EXCESSIVELY.
   ELEMENT SPIRAL-1.1620 IS DISTORTING EXCESSIVELY.
   ELEMENT SPIRAL-1.1621 IS DISTORTING EXCESSIVELY.
   ELEMENT SPIRAL-1.1623 IS DISTORTING EXCESSIVELY.
   ELEMENT SPIRAL-1.1624 IS DISTORTING EXCESSIVELY.
   ELEMENT SPIRAL-1.1625 IS DISTORTING EXCESSIVELY.
   ELEMENT SPIRAL-1.1626 IS DISTORTING EXCESSIVELY.
   ELEMENT SPIRAL-1.1628 IS DISTORTING EXCESSIVELY.
   ELEMENT SPIRAL-1.1631 IS DISTORTING EXCESSIVELY.
   ELEMENT SPIRAL-1.1634 IS DISTORTING EXCESSIVELY.
   ELEMENT SPIRAL-1.1637 IS DISTORTING EXCESSIVELY.
   ELEMENT SPIRAL-1.1638 IS DISTORTING EXCESSIVELY.
   ELEMENT SPIRAL-1.1642 IS DISTORTING EXCESSIVELY.
   ELEMENT SPIRAL-1.1644 IS DISTORTING EXCESSIVELY.
   ELEMENT SPIRAL-1.1645 IS DISTORTING EXCESSIVELY.
   ELEMENT SPIRAL-1.1647 IS DISTORTING EXCESSIVELY.
   ELEMENT SPIRAL-1.1648 IS DISTORTING EXCESSIVELY.
   ELEMENT SPIRAL-1.1651 IS DISTORTING EXCESSIVELY.
   ELEMENT SPIRAL-1.1653 IS DISTORTING EXCESSIVELY.
   ELEMENT SPIRAL-1.1654 IS DISTORTING EXCESSIVELY.
   ELEMENT SPIRAL-1.1658 IS DISTORTING EXCESSIVELY.
   ELEMENT SPIRAL-1.1661 IS DISTORTING EXCESSIVELY.
   ELEMENT SPIRAL-1.1662 IS DISTORTING EXCESSIVELY.
   ELEMENT SPIRAL-1.1663 IS DISTORTING EXCESSIVELY.
   ELEMENT SPIRAL-1.1664 IS DISTORTING EXCESSIVELY.
   ELEMENT SPIRAL-1.1665 IS DISTORTING EXCESSIVELY.
   ELEMENT SPIRAL-1.1666 IS DISTORTING EXCESSIVELY.
   ELEMENT SPIRAL-1.1669 IS DISTORTING EXCESSIVELY.
   ELEMENT SPIRAL-1.1670 IS DISTORTING EXCESSIVELY.
   ELEMENT SPIRAL-1.1671 IS DISTORTING EXCESSIVELY.
   ELEMENT SPIRAL-1.1672 IS DISTORTING EXCESSIVELY.
   ELEMENT SPIRAL-1.1673 IS DISTORTING EXCESSIVELY.
   ELEMENT SPIRAL-1.1675 IS DISTORTING EXCESSIVELY.
   ELEMENT SPIRAL-1.1676 IS DISTORTING EXCESSIVELY.
   ELEMENT SPIRAL-1.1678 IS DISTORTING EXCESSIVELY.
   ELEMENT SPIRAL-1.1679 IS DISTORTING EXCESSIVELY.
   ELEMENT SPIRAL-1.1680 IS DISTORTING EXCESSIVELY.
   ELEMENT SPIRAL-1.1681 IS DISTORTING EXCESSIVELY.
   ELEMENT SPIRAL-1.1682 IS DISTORTING EXCESSIVELY.
   ELEMENT SPIRAL-1.1687 IS DISTORTING EXCESSIVELY.
   ELEMENT SPIRAL-1.1689 IS DISTORTING EXCESSIVELY.
   ELEMENT SPIRAL-1.1693 IS DISTORTING EXCESSIVELY.
   ELEMENT SPIRAL-1.1694 IS DISTORTING EXCESSIVELY.
   ELEMENT SPIRAL-1.1695 IS DISTORTING EXCESSIVELY.
   ELEMENT SPIRAL-1.1696 IS DISTORTING EXCESSIVELY.
   ELEMENT SPIRAL-1.1697 IS DISTORTING EXCESSIVELY.
   ELEMENT SPIRAL-1.1698 IS DISTORTING EXCESSIVELY.
   ELEMENT SPIRAL-1.1699 IS DISTORTING EXCESSIVELY.
   ELEMENT SPIRAL-1.1701 IS DISTORTING EXCESSIVELY.
   ELEMENT SPIRAL-1.1703 IS DISTORTING EXCESSIVELY.
   ELEMENT SPIRAL-1.1704 IS DISTORTING EXCESSIVELY.
   ELEMENT SPIRAL-1.1705 IS DISTORTING EXCESSIVELY.
   ELEMENT SPIRAL-1.1707 IS DISTORTING EXCESSIVELY.
   ELEMENT SPIRAL-1.1711 IS DISTORTING EXCESSIVELY.
   ELEMENT SPIRAL-1.1712 IS DISTORTING EXCESSIVELY.
   ELEMENT SPIRAL-1.1713 IS DISTORTING EXCESSIVELY.
   ELEMENT SPIRAL-1.1714 IS DISTORTING EXCESSIVELY.
   ELEMENT SPIRAL-1.1715 IS DISTORTING EXCESSIVELY.
   ELEMENT SPIRAL-1.1717 IS DISTORTING EXCESSIVELY.
   ELEMENT SPIRAL-1.1719 IS DISTORTING EXCESSIVELY.
   ELEMENT SPIRAL-1.1720 IS DISTORTING EXCESSIVELY.
   ELEMENT SPIRAL-1.1721 IS DISTORTING EXCESSIVELY.
   ELEMENT SPIRAL-1.1727 IS DISTORTING EXCESSIVELY.
   ELEMENT SPIRAL-1.1728 IS DISTORTING EXCESSIVELY.
   ELEMENT SPIRAL-1.1729 IS DISTORTING EXCESSIVELY.
   ELEMENT SPIRAL-1.1732 IS DISTORTING EXCESSIVELY.
   ELEMENT SPIRAL-1.1737 IS DISTORTING EXCESSIVELY.
   ELEMENT SPIRAL-1.1740 IS DISTORTING EXCESSIVELY.
   ELEMENT SPIRAL-1.1743 IS DISTORTING EXCESSIVELY.
   ELEMENT SPIRAL-1.1745 IS DISTORTING EXCESSIVELY.
   ELEMENT SPIRAL-1.1746 IS DISTORTING EXCESSIVELY.
   ELEMENT SPIRAL-1.1747 IS DISTORTING EXCESSIVELY.
   ELEMENT SPIRAL-1.1748 IS DISTORTING EXCESSIVELY.
   ELEMENT SPIRAL-1.1750 IS DISTORTING EXCESSIVELY.
   ELEMENT SPIRAL-1.1754 IS DISTORTING EXCESSIVELY.
   ELEMENT SPIRAL-1.1755 IS DISTORTING EXCESSIVELY.
   ELEMENT SPIRAL-1.1762 IS DISTORTING EXCESSIVELY.
   ELEMENT SPIRAL-1.1764 IS DISTORTING EXCESSIVELY.
   ELEMENT SPIRAL-1.1765 IS DISTORTING EXCESSIVELY.
   ELEMENT SPIRAL-1.1771 IS DISTORTING EXCESSIVELY.
   ELEMENT SPIRAL-1.1773 IS DISTORTING EXCESSIVELY.
   ELEMENT SPIRAL-1.1776 IS DISTORTING EXCESSIVELY.
   ELEMENT SPIRAL-1.1778 IS DISTORTING EXCESSIVELY.
   ELEMENT SPIRAL-1.1779 IS DISTORTING EXCESSIVELY.
   ELEMENT SPIRAL-1.1780 IS DISTORTING EXCESSIVELY.
   ELEMENT SPIRAL-1.1782 IS DISTORTING EXCESSIVELY.
   ELEMENT SPIRAL-1.1784 IS DISTORTING EXCESSIVELY.
   ELEMENT SPIRAL-1.1785 IS DISTORTING EXCESSIVELY.
   ELEMENT SPIRAL-1.1790 IS DISTORTING EXCESSIVELY.
[...]
        NUMBER OF FLOPS:      5.924e+09
        SOLVER ELAPSED TIME:  477ms
 

 ***WARNING: THE SYSTEM MATRIX HAS 1 NEGATIVE EIGENVALUES.
             EXPLANATIONS ARE SUGGESTED AFTER THE FIRST OCCURRENCE OF THIS MESSAGE.

               CONVERGENCE CHECKS FOR EQUILIBRIUM ITERATION     2


 AVERAGE FORCE                      8.804E-03   TIME AVG. FORCE       3.216E-03
 LARGEST SCALED RESIDUAL FORCE     -9.853E-04   AT NODE       8663   DOF  3
   INSTANCE: SPIRAL-1                                                                        
  CORRESPONDING RESIDUAL FORCE     -9.853E-04
 LARGEST INCREMENT OF DISP.        -2.311E-03   AT NODE        170   DOF  2
   INSTANCE: SPIRAL-1                                                                        
 LARGEST CORRECTION TO DISP.       -3.754E-07   AT NODE        166   DOF  3
   INSTANCE: SPIRAL-1                                                                        
          FORCE     EQUILIBRIUM NOT ACHIEVED WITHIN TOLERANCE.
 
	SYMMETRIC PURE THREAD-BASED DIRECT SPARSE SOLVER RUNNING ON
 	1 HOST x 1 MPI RANK PER HOST x 1 THREAD PER RANK
        NUMBER OF EQUATIONS:  90774
        NUMBER OF RHS:        1
        NUMBER OF FLOPS:      5.924e+09
        SOLVER ELAPSED TIME:  484ms

               CONVERGENCE CHECKS FOR EQUILIBRIUM ITERATION     3


 AVERAGE FORCE                      8.814E-03   TIME AVG. FORCE       3.216E-03
 LARGEST SCALED RESIDUAL FORCE     -1.109E-02   AT NODE      17271   DOF  3
   INSTANCE: SPIRAL-1                                                                        
  CORRESPONDING RESIDUAL FORCE     -1.109E-02
 LARGEST INCREMENT OF DISP.        -2.359E-03   AT NODE        170   DOF  2
   INSTANCE: SPIRAL-1                                                                        
 LARGEST CORRECTION TO DISP.       -4.859E-05   AT NODE        170   DOF  2
   INSTANCE: SPIRAL-1                                                                        
          FORCE     EQUILIBRIUM NOT ACHIEVED WITHIN TOLERANCE.
 
	SYMMETRIC PURE THREAD-BASED DIRECT SPARSE SOLVER RUNNING ON
 	1 HOST x 1 MPI RANK PER HOST x 1 THREAD PER RANK
        NUMBER OF EQUATIONS:  90774
        NUMBER OF RHS:        1
        NUMBER OF FLOPS:      5.924e+09
        SOLVER ELAPSED TIME:  500ms

               CONVERGENCE CHECKS FOR EQUILIBRIUM ITERATION     4


 AVERAGE FORCE                      8.809E-03   TIME AVG. FORCE       3.216E-03
 LARGEST SCALED RESIDUAL FORCE      1.765E-05   AT NODE      17271   DOF  3
   INSTANCE: SPIRAL-1                                                                        
  CORRESPONDING RESIDUAL FORCE      1.765E-05
 LARGEST INCREMENT OF DISP.        -2.360E-03   AT NODE        170   DOF  2
   INSTANCE: SPIRAL-1                                                                        
 LARGEST CORRECTION TO DISP.       -4.812E-07   AT NODE        170   DOF  2
   INSTANCE: SPIRAL-1                                                                        
          FORCE     EQUILIBRIUM NOT ACHIEVED WITHIN TOLERANCE.
 
	SYMMETRIC PURE THREAD-BASED DIRECT SPARSE SOLVER RUNNING ON
 	1 HOST x 1 MPI RANK PER HOST x 1 THREAD PER RANK
        NUMBER OF EQUATIONS:  90774
        NUMBER OF RHS:        1
        NUMBER OF FLOPS:      5.924e+09
        SOLVER ELAPSED TIME:  494ms

               CONVERGENCE CHECKS FOR EQUILIBRIUM ITERATION     5


 AVERAGE FORCE                      8.808E-03   TIME AVG. FORCE       3.216E-03
 LARGEST SCALED RESIDUAL FORCE     -7.707E-04   AT NODE      17271   DOF  3
   INSTANCE: SPIRAL-1                                                                        
  CORRESPONDING RESIDUAL FORCE     -7.707E-04
 LARGEST INCREMENT OF DISP.        -2.373E-03   AT NODE        170   DOF  2
   INSTANCE: SPIRAL-1                                                                        
 LARGEST CORRECTION TO DISP.       -1.278E-05   AT NODE        170   DOF  2
   INSTANCE: SPIRAL-1                                                                        
          FORCE     EQUILIBRIUM NOT ACHIEVED WITHIN TOLERANCE.
 
	SYMMETRIC PURE THREAD-BASED DIRECT SPARSE SOLVER RUNNING ON
 	1 HOST x 1 MPI RANK PER HOST x 1 THREAD PER RANK
        NUMBER OF EQUATIONS:  90774
        NUMBER OF RHS:        1
        NUMBER OF FLOPS:      5.924e+09
        SOLVER ELAPSED TIME:  524ms

               CONVERGENCE CHECKS FOR EQUILIBRIUM ITERATION     6


 AVERAGE FORCE                      8.811E-03   TIME AVG. FORCE       3.216E-03
 LARGEST SCALED RESIDUAL FORCE      4.181E-06   AT NODE        230   DOF  2
   INSTANCE: SPIRAL-1                                                                        
  CORRESPONDING RESIDUAL FORCE      4.181E-06
 LARGEST INCREMENT OF DISP.        -2.372E-03   AT NODE        170   DOF  2
   INSTANCE: SPIRAL-1                                                                        
 LARGEST CORRECTION TO DISP.        8.500E-08   AT NODE        170   DOF  2
   INSTANCE: SPIRAL-1                                                                        
          THE FORCE     EQUILIBRIUM EQUATIONS HAVE CONVERGED

 ITERATION SUMMARY FOR THE INCREMENT:   6 TOTAL ITERATIONS, OF WHICH
   0 ARE SEVERE DISCONTINUITY ITERATIONS AND  6 ARE EQUILIBRIUM ITERATIONS.

 TIME INCREMENT COMPLETED  5.213E-02,  FRACTION OF STEP COMPLETED  0.926    
 STEP TIME COMPLETED       0.926    ,  TOTAL TIME COMPLETED        0.926    


  INCREMENT    63 STARTS. ATTEMPT NUMBER  1, TIME INCREMENT  5.213E-02
 
	SYMMETRIC PURE THREAD-BASED DIRECT SPARSE SOLVER RUNNING ON
 	1 HOST x 1 MPI RANK PER HOST x 1 THREAD PER RANK
        NUMBER OF EQUATIONS:  90774
        NUMBER OF RHS:        1
        NUMBER OF FLOPS:      5.924e+09
        SOLVER ELAPSED TIME:  540ms

               CONVERGENCE CHECKS FOR EQUILIBRIUM ITERATION     1


 AVERAGE FORCE                      9.991E-03   TIME AVG. FORCE       3.323E-03
 LARGEST SCALED RESIDUAL FORCE      0.207       AT NODE      17271   DOF  3
   INSTANCE: SPIRAL-1                                                                        
  CORRESPONDING RESIDUAL FORCE      0.207    
 LARGEST INCREMENT OF DISP.        -2.212E-03   AT NODE        170   DOF  2
   INSTANCE: SPIRAL-1                                                                        
 LARGEST CORRECTION TO DISP.        2.059E-04   AT NODE        166   DOF  2
   INSTANCE: SPIRAL-1                                                                        
          FORCE     EQUILIBRIUM NOT ACHIEVED WITHIN TOLERANCE.
 
	SYMMETRIC PURE THREAD-BASED DIRECT SPARSE SOLVER RUNNING ON
 	1 HOST x 1 MPI RANK PER HOST x 1 THREAD PER RANK
        NUMBER OF EQUATIONS:  90774
        NUMBER OF RHS:        1
        NUMBER OF FLOPS:      5.924e+09
        SOLVER ELAPSED TIME:  476ms
 

 ***WARNING: THE SYSTEM MATRIX HAS 1 NEGATIVE EIGENVALUES.
             EXPLANATIONS ARE SUGGESTED AFTER THE FIRST OCCURRENCE OF THIS MESSAGE.

               CONVERGENCE CHECKS FOR EQUILIBRIUM ITERATION     2


 AVERAGE FORCE                      9.163E-03   TIME AVG. FORCE       3.310E-03
 LARGEST SCALED RESIDUAL FORCE     -1.540E-03   AT NODE        178   DOF  2
   INSTANCE: SPIRAL-1                                                                        
  CORRESPONDING RESIDUAL FORCE     -1.540E-03
 LARGEST INCREMENT OF DISP.        -2.212E-03   AT NODE        170   DOF  2
   INSTANCE: SPIRAL-1                                                                        
 LARGEST CORRECTION TO DISP.        8.157E-07   AT NODE       4956   DOF  2
   INSTANCE: SPIRAL-1                                                                        
          FORCE     EQUILIBRIUM NOT ACHIEVED WITHIN TOLERANCE.
 
	SYMMETRIC PURE THREAD-BASED DIRECT SPARSE SOLVER RUNNING ON
 	1 HOST x 1 MPI RANK PER HOST x 1 THREAD PER RANK
        NUMBER OF EQUATIONS:  90774
        NUMBER OF RHS:        1
        NUMBER OF FLOPS:      5.924e+09
        SOLVER ELAPSED TIME:  583ms

               CONVERGENCE CHECKS FOR EQUILIBRIUM ITERATION     3


 AVERAGE FORCE                      9.191E-03   TIME AVG. FORCE       3.311E-03
 LARGEST SCALED RESIDUAL FORCE     -2.056E-02   AT NODE      17271   DOF  3
   INSTANCE: SPIRAL-1                                                                        
  CORRESPONDING RESIDUAL FORCE     -2.056E-02
 LARGEST INCREMENT OF DISP.        -2.277E-03   AT NODE        170   DOF  2
   INSTANCE: SPIRAL-1                                                                        
 LARGEST CORRECTION TO DISP.       -6.463E-05   AT NODE        170   DOF  2
   INSTANCE: SPIRAL-1                                                                        
          FORCE     EQUILIBRIUM NOT ACHIEVED WITHIN TOLERANCE.
 
	SYMMETRIC PURE THREAD-BASED DIRECT SPARSE SOLVER RUNNING ON
 	1 HOST x 1 MPI RANK PER HOST x 1 THREAD PER RANK
        NUMBER OF EQUATIONS:  90774
        NUMBER OF RHS:        1
        NUMBER OF FLOPS:      5.924e+09
        SOLVER ELAPSED TIME:  486ms

               CONVERGENCE CHECKS FOR EQUILIBRIUM ITERATION     4


 AVERAGE FORCE                      9.170E-03   TIME AVG. FORCE       3.310E-03
 LARGEST SCALED RESIDUAL FORCE      3.281E-05   AT NODE      17271   DOF  3
   INSTANCE: SPIRAL-1                                                                        
  CORRESPONDING RESIDUAL FORCE      3.281E-05
 LARGEST INCREMENT OF DISP.        -2.277E-03   AT NODE        170   DOF  2
   INSTANCE: SPIRAL-1                                                                        
 LARGEST CORRECTION TO DISP.       -4.419E-07   AT NODE        170   DOF  2
   INSTANCE: SPIRAL-1                                                                        
          FORCE     EQUILIBRIUM NOT ACHIEVED WITHIN TOLERANCE.
 
	SYMMETRIC PURE THREAD-BASED DIRECT SPARSE SOLVER RUNNING ON
 	1 HOST x 1 MPI RANK PER HOST x 1 THREAD PER RANK
        NUMBER OF EQUATIONS:  90774
        NUMBER OF RHS:        1
        NUMBER OF FLOPS:      5.924e+09
        SOLVER ELAPSED TIME:  477ms

               CONVERGENCE CHECKS FOR EQUILIBRIUM ITERATION     5


 AVERAGE FORCE                      9.170E-03   TIME AVG. FORCE       3.310E-03
 LARGEST SCALED RESIDUAL FORCE     -2.849E-03   AT NODE      17271   DOF  3
   INSTANCE: SPIRAL-1                                                                        
  CORRESPONDING RESIDUAL FORCE     -2.849E-03
 LARGEST INCREMENT OF DISP.        -2.301E-03   AT NODE        170   DOF  2
   INSTANCE: SPIRAL-1                                                                        
 LARGEST CORRECTION TO DISP.       -2.402E-05   AT NODE        170   DOF  2
   INSTANCE: SPIRAL-1                                                                        
          FORCE     EQUILIBRIUM NOT ACHIEVED WITHIN TOLERANCE.
 
	SYMMETRIC PURE THREAD-BASED DIRECT SPARSE SOLVER RUNNING ON
 	1 HOST x 1 MPI RANK PER HOST x 1 THREAD PER RANK
        NUMBER OF EQUATIONS:  90774
        NUMBER OF RHS:        1
        NUMBER OF FLOPS:      5.924e+09
        SOLVER ELAPSED TIME:  493ms

               CONVERGENCE CHECKS FOR EQUILIBRIUM ITERATION     6


 AVERAGE FORCE                      9.173E-03   TIME AVG. FORCE       3.310E-03
 LARGEST SCALED RESIDUAL FORCE      1.350E-05   AT NODE        740   DOF  2
   INSTANCE: SPIRAL-1                                                                        
  CORRESPONDING RESIDUAL FORCE      1.350E-05
 LARGEST INCREMENT OF DISP.        -2.301E-03   AT NODE        170   DOF  2
   INSTANCE: SPIRAL-1                                                                        
 LARGEST CORRECTION TO DISP.        1.316E-07   AT NODE        170   DOF  2
   INSTANCE: SPIRAL-1                                                                        
          THE FORCE     EQUILIBRIUM EQUATIONS HAVE CONVERGED

 ITERATION SUMMARY FOR THE INCREMENT:   6 TOTAL ITERATIONS, OF WHICH
   0 ARE SEVERE DISCONTINUITY ITERATIONS AND  6 ARE EQUILIBRIUM ITERATIONS.

 TIME INCREMENT COMPLETED  5.213E-02,  FRACTION OF STEP COMPLETED  0.978    
 STEP TIME COMPLETED       0.978    ,  TOTAL TIME COMPLETED        0.978    


  INCREMENT    64 STARTS. ATTEMPT NUMBER  1, TIME INCREMENT  2.226E-02
 
	SYMMETRIC PURE THREAD-BASED DIRECT SPARSE SOLVER RUNNING ON
 	1 HOST x 1 MPI RANK PER HOST x 1 THREAD PER RANK
        NUMBER OF EQUATIONS:  90774
        NUMBER OF RHS:        1
        NUMBER OF FLOPS:      5.924e+09
        SOLVER ELAPSED TIME:  504ms

               CONVERGENCE CHECKS FOR EQUILIBRIUM ITERATION     1


 AVERAGE FORCE                      9.347E-03   TIME AVG. FORCE       3.405E-03
 LARGEST SCALED RESIDUAL FORCE      1.905E-02   AT NODE      17271   DOF  3
   INSTANCE: SPIRAL-1                                                                        
  CORRESPONDING RESIDUAL FORCE      1.905E-02
 LARGEST INCREMENT OF DISP.        -9.535E-04   AT NODE        170   DOF  2
   INSTANCE: SPIRAL-1                                                                        
 LARGEST CORRECTION TO DISP.        4.559E-05   AT NODE        166   DOF  2
   INSTANCE: SPIRAL-1                                                                        
          FORCE     EQUILIBRIUM NOT ACHIEVED WITHIN TOLERANCE.
 
	SYMMETRIC PURE THREAD-BASED DIRECT SPARSE SOLVER RUNNING ON
 	1 HOST x 1 MPI RANK PER HOST x 1 THREAD PER RANK
        NUMBER OF EQUATIONS:  90774
        NUMBER OF RHS:        1
        NUMBER OF FLOPS:      5.924e+09
        SOLVER ELAPSED TIME:  544ms
 

 ***WARNING: THE SYSTEM MATRIX HAS 1 NEGATIVE EIGENVALUES.
             EXPLANATIONS ARE SUGGESTED AFTER THE FIRST OCCURRENCE OF THIS MESSAGE.

               CONVERGENCE CHECKS FOR EQUILIBRIUM ITERATION     2


 AVERAGE FORCE                      9.337E-03   TIME AVG. FORCE       3.404E-03
 LARGEST SCALED RESIDUAL FORCE      1.715E-03   AT NODE        740   DOF  2
   INSTANCE: SPIRAL-1                                                                        
  CORRESPONDING RESIDUAL FORCE      1.715E-03
 LARGEST INCREMENT OF DISP.        -9.519E-04   AT NODE        170   DOF  2
   INSTANCE: SPIRAL-1                                                                        
 LARGEST CORRECTION TO DISP.        2.391E-06   AT NODE        738   DOF  2
   INSTANCE: SPIRAL-1                                                                        
          FORCE     EQUILIBRIUM NOT ACHIEVED WITHIN TOLERANCE.
 
	SYMMETRIC PURE THREAD-BASED DIRECT SPARSE SOLVER RUNNING ON
 	1 HOST x 1 MPI RANK PER HOST x 1 THREAD PER RANK
        NUMBER OF EQUATIONS:  90774
        NUMBER OF RHS:        1
        NUMBER OF FLOPS:      5.924e+09
        SOLVER ELAPSED TIME:  594ms

               CONVERGENCE CHECKS FOR EQUILIBRIUM ITERATION     3


 AVERAGE FORCE                      9.347E-03   TIME AVG. FORCE       3.405E-03
 LARGEST SCALED RESIDUAL FORCE     -1.189E-02   AT NODE      17271   DOF  3
   INSTANCE: SPIRAL-1                                                                        
  CORRESPONDING RESIDUAL FORCE     -1.189E-02
 LARGEST INCREMENT OF DISP.        -1.001E-03   AT NODE        170   DOF  2
   INSTANCE: SPIRAL-1                                                                        
 LARGEST CORRECTION TO DISP.       -4.863E-05   AT NODE        170   DOF  2
   INSTANCE: SPIRAL-1                                                                        
          FORCE     EQUILIBRIUM NOT ACHIEVED WITHIN TOLERANCE.
 
	SYMMETRIC PURE THREAD-BASED DIRECT SPARSE SOLVER RUNNING ON
 	1 HOST x 1 MPI RANK PER HOST x 1 THREAD PER RANK
        NUMBER OF EQUATIONS:  90774
        NUMBER OF RHS:        1
        NUMBER OF FLOPS:      5.924e+09
        SOLVER ELAPSED TIME:  474ms

               CONVERGENCE CHECKS FOR EQUILIBRIUM ITERATION     4


 AVERAGE FORCE                      9.343E-03   TIME AVG. FORCE       3.405E-03
 LARGEST SCALED RESIDUAL FORCE      8.058E-05   AT NODE        740   DOF  2
   INSTANCE: SPIRAL-1                                                                        
  CORRESPONDING RESIDUAL FORCE      8.058E-05
 LARGEST INCREMENT OF DISP.        -1.001E-03   AT NODE        170   DOF  2
   INSTANCE: SPIRAL-1                                                                        
 LARGEST CORRECTION TO DISP.       -1.015E-07   AT NODE       4955   DOF  2
   INSTANCE: SPIRAL-1                                                                        
          FORCE     EQUILIBRIUM NOT ACHIEVED WITHIN TOLERANCE.
 
	SYMMETRIC PURE THREAD-BASED DIRECT SPARSE SOLVER RUNNING ON
 	1 HOST x 1 MPI RANK PER HOST x 1 THREAD PER RANK
        NUMBER OF EQUATIONS:  90774
        NUMBER OF RHS:        1
        NUMBER OF FLOPS:      5.924e+09
        SOLVER ELAPSED TIME:  475ms

               CONVERGENCE CHECKS FOR EQUILIBRIUM ITERATION     5


 AVERAGE FORCE                      9.343E-03   TIME AVG. FORCE       3.405E-03
 LARGEST SCALED RESIDUAL FORCE     -3.582E-05   AT NODE      17271   DOF  3
   INSTANCE: SPIRAL-1                                                                        
  CORRESPONDING RESIDUAL FORCE     -3.582E-05
 LARGEST INCREMENT OF DISP.        -1.003E-03   AT NODE        170   DOF  2
   INSTANCE: SPIRAL-1                                                                        
 LARGEST CORRECTION TO DISP.       -2.657E-06   AT NODE        170   DOF  2
   INSTANCE: SPIRAL-1                                                                        
          FORCE     EQUILIBRIUM NOT ACHIEVED WITHIN TOLERANCE.
 
	SYMMETRIC PURE THREAD-BASED DIRECT SPARSE SOLVER RUNNING ON
 	1 HOST x 1 MPI RANK PER HOST x 1 THREAD PER RANK
        NUMBER OF EQUATIONS:  90774
        NUMBER OF RHS:        1
        NUMBER OF FLOPS:      5.924e+09
        SOLVER ELAPSED TIME:  468ms

               CONVERGENCE CHECKS FOR EQUILIBRIUM ITERATION     6


 AVERAGE FORCE                      9.343E-03   TIME AVG. FORCE       3.405E-03
 LARGEST SCALED RESIDUAL FORCE      1.106E-06   AT NODE        178   DOF  2
   INSTANCE: SPIRAL-1                                                                        
  CORRESPONDING RESIDUAL FORCE      1.106E-06
 LARGEST INCREMENT OF DISP.        -1.003E-03   AT NODE        170   DOF  2
   INSTANCE: SPIRAL-1                                                                        
 LARGEST CORRECTION TO DISP.        1.474E-08   AT NODE       4957   DOF  2
   INSTANCE: SPIRAL-1                                                                        
          THE FORCE     EQUILIBRIUM EQUATIONS HAVE CONVERGED

 ITERATION SUMMARY FOR THE INCREMENT:   6 TOTAL ITERATIONS, OF WHICH
   0 ARE SEVERE DISCONTINUITY ITERATIONS AND  6 ARE EQUILIBRIUM ITERATIONS.

 TIME INCREMENT COMPLETED  2.226E-02,  FRACTION OF STEP COMPLETED   1.00    
 STEP TIME COMPLETED        1.00    ,  TOTAL TIME COMPLETED         1.00    


          THE ANALYSIS HAS BEEN COMPLETED



     ANALYSIS SUMMARY:
     TOTAL OF         64  INCREMENTS
                      15  CUTBACKS IN AUTOMATIC INCREMENTATION
                     348  ITERATIONS INCLUDING CONTACT ITERATIONS IF PRESENT
                     348  PASSES THROUGH THE EQUATION SOLVER OF WHICH 
                     348  INVOLVE MATRIX DECOMPOSITION, INCLUDING
                       0  DECOMPOSITION(S) OF THE MASS MATRIX
                       1  REORDERING OF EQUATIONS TO MINIMIZE WAVEFRONT
                       0  ADDITIONAL RESIDUAL EVALUATIONS FOR LINE SEARCHES
                       0  ADDITIONAL OPERATOR EVALUATIONS FOR LINE SEARCHES
                       4  WARNING MESSAGES DURING USER INPUT PROCESSING
                   90115  WARNING MESSAGES DURING ANALYSIS
                   90042  ANALYSIS WARNINGS ARE NUMERICAL PROBLEM MESSAGES
                      68  ANALYSIS WARNINGS ARE NEGATIVE EIGENVALUE MESSAGES
                       0  ERROR MESSAGES



     JOB TIME SUMMARY
       USER TIME (SEC)      =     2.53E+03
       SYSTEM TIME (SEC)    =     2.29E+02
       TOTAL CPU TIME (SEC) =     2.76E+03
       WALLCLOCK TIME (SEC) =          529
       MEMORY PEAK (GB)     =            0
