1

   Abaqus 2025                                  Date 10-Feb-2026   Time 16:08:40
   For use by UNIVERSITAET STUTTGART under license from Dassault Systemes or its subsidiary.

                                                                                 
                                                                                 
 STEP    1     INCREMENT     1     STEP TIME    0.00    


                        S T E P       1     S T A T I C   A N A L Y S I S


                                                                                          

     AUTOMATIC TIME CONTROL WITH -
          A SUGGESTED INITIAL TIME INCREMENT OF                 1.00    
          AND A TOTAL TIME PERIOD OF                            1.00    
          THE MINIMUM TIME INCREMENT ALLOWED IS                1.000E-05
          THE MAXIMUM TIME INCREMENT ALLOWED IS                 1.00    

     LINEAR EQUATION SOLVER TYPE         DIRECT SPARSE

 CONVERGENCE TOLERANCE PARAMETERS FOR FORCE    
     CRITERION FOR RESIDUAL FORCE     FOR A NONLINEAR PROBLEM          5.000E-03
     CRITERION FOR DISP.    CORRECTION IN A NONLINEAR PROBLEM          1.000E-02
     INITIAL VALUE OF TIME AVERAGE FORCE                               1.000E-02
     AVERAGE FORCE     IS TIME AVERAGE FORCE    
     ALTERNATE CRIT. FOR RESIDUAL FORCE     FOR A NONLINEAR PROBLEM    2.000E-02
     CRITERION FOR ZERO FORCE     RELATIVE TO TIME AVRG. FORCE         1.000E-05
     CRITERION FOR RESIDUAL FORCE     WHEN THERE IS ZERO FLUX          1.000E-05
     CRITERION FOR DISP.    CORRECTION WHEN THERE IS ZERO FLUX         1.000E-03
     CRITERION FOR RESIDUAL FORCE     FOR A LINEAR INCREMENT           1.000E-08
     FIELD CONVERSION RATIO                                             1.00    
     CRITERION FOR ZERO FORCE     REL. TO TIME AVRG. MAX. FORCE        1.000E-05
     CRITERION FOR ZERO DISP.    RELATIVE TO CHARACTERISTIC LENGTH     1.000E-08

     VOLUMETRIC STRAIN COMPATIBILITY TOLERANCE FOR HYBRID SOLIDS       1.000E-05
     AXIAL STRAIN COMPATIBILITY TOLERANCE FOR HYBRID BEAMS             1.000E-05
     TRANS. SHEAR STRAIN COMPATIBILITY TOLERANCE FOR HYBRID BEAMS      1.000E-05
     SOFT CONTACT CONSTRAINT COMPATIBILITY TOLERANCE FOR P>P0          5.000E-03
     SOFT CONTACT CONSTRAINT COMPATIBILITY TOLERANCE FOR P=0.0         0.100    
     CONTACT FORCE ERROR TOLERANCE FOR CONVERT SDI=YES                 1.00    
     DISPLACEMENT COMPATIBILITY TOLERANCE FOR DCOUP ELEMENTS           1.000E-05
     ROTATION COMPATIBILITY TOLERANCE FOR DCOUP ELEMENTS               1.000E-05

 EQUILIBRIUM WILL BE CHECKED FOR SEVERE DISCONTINUITY ITERATIONS

 TIME INCREMENTATION CONTROL PARAMETERS:
     FIRST EQUILIBRIUM ITERATION FOR CONSECUTIVE DIVERGENCE CHECK              4
     EQUILIBRIUM ITERATION AT WHICH LOG. CONVERGENCE RATE CHECK BEGINS         8
     EQUILIBRIUM ITERATION AFTER WHICH ALTERNATE RESIDUAL IS USED              9
     MAXIMUM EQUILIBRIUM ITERATIONS ALLOWED                                   16
     EQUILIBRIUM ITERATION COUNT FOR CUT-BACK IN NEXT INCREMENT               10
     MAXIMUM EQUILIB. ITERS IN TWO INCREMENTS FOR TIME INCREMENT INCREASE      4
     MAXIMUM ITERATIONS FOR SEVERE DISCONTINUITIES                            50
     MAXIMUM ATTEMPTS ALLOWED IN AN INCREMENT                                  5
     MAXIMUM DISCON. ITERS IN TWO INCREMENTS FOR TIME INCREMENT INCREASE      50
     MAXIMUM CONTACT AUGMENTATIONS FOR *SURFACE BEHAVIOR,AUGMENTED LAGRANGE   50
     CUT-BACK FACTOR AFTER DIVERGENCE                                 0.2500    
     CUT-BACK FACTOR FOR TOO SLOW CONVERGENCE                         0.5000    
     CUT-BACK FACTOR AFTER TOO MANY EQUILIBRIUM ITERATIONS            0.7500    
     CUT-BACK FACTOR AFTER TOO MANY SEVERE DISCONTINUITY ITERATIONS   0.2500    
     CUT-BACK FACTOR AFTER PROBLEMS IN ELEMENT ASSEMBLY               0.2500    
     INCREASE FACTOR AFTER TWO INCREMENTS THAT CONVERGE QUICKLY        1.500    
     MAX. TIME INCREMENT INCREASE FACTOR ALLOWED                       1.500    
     MAX. TIME INCREMENT INCREASE FACTOR ALLOWED (DYNAMICS)            1.250    
     MAX. TIME INCREMENT INCREASE FACTOR ALLOWED (DIFFUSION)           2.000    
     MINIMUM TIME INCREMENT RATIO FOR EXTRAPOLATION TO OCCUR          0.1000    
     MAX. RATIO OF TIME INCREMENT TO STABILITY LIMIT                   1.000    
     FRACTION OF STABILITY LIMIT FOR NEW TIME INCREMENT               0.9500    
     TIME INCREMENT INCREASE FACTOR BEFORE A TIME POINT                1.000    
     GLOBAL STABILIZATION CONTROL IS NOT USED

          PRINT OF INCREMENT NUMBER, TIME, ETC., EVERY    1  INCREMENTS

     THE MAXIMUM NUMBER OF INCREMENTS IN THIS STEP IS                     100

          LARGE DISPLACEMENT THEORY WILL BE USED

     LINEAR EXTRAPOLATION WILL BE USED

     CHARACTERISTIC ELEMENT LENGTH     8.268E-04

     DETAILS REGARDING ACTUAL SOLUTION WAVEFRONT REQUESTED

     DETAILED OUTPUT OF DIAGNOSTICS TO DATABASE REQUESTED

     PRINT OF INCREMENT NUMBER, TIME, ETC., TO THE MESSAGE FILE EVERY     1  INCREMENTS

     COLLECTING MODEL CONSTRAINT INFORMATION FOR OVERCONSTRAINT CHECKS

     COLLECTING STEP CONSTRAINT INFORMATION FOR OVERCONSTRAINT CHECKS


  INCREMENT     1 STARTS. ATTEMPT NUMBER  1, TIME INCREMENT   1.00    
 
	SYMMETRIC PURE THREAD-BASED DIRECT SPARSE SOLVER RUNNING ON
 	1 HOST x 1 MPI RANK PER HOST x 1 THREAD PER RANK
        NUMBER OF EQUATIONS:  90774
        NUMBER OF RHS:        1
        NUMBER OF FLOPS:      6.037e+09
        SOLVER ELAPSED TIME:  308ms

               CONVERGENCE CHECKS FOR EQUILIBRIUM ITERATION     1


 AVERAGE FORCE                      9.143E+03   TIME AVG. FORCE       9.143E+03
 LARGEST SCALED RESIDUAL FORCE     -6.009E+05   AT NODE      10745   DOF  2
   INSTANCE: SPIRAL-1                                                                        
  CORRESPONDING RESIDUAL FORCE     -6.009E+05
 LARGEST INCREMENT OF DISP.        -0.604       AT NODE       3156   DOF  3
   INSTANCE: SPIRAL-1                                                                        
 LARGEST CORRECTION TO DISP.       -0.604       AT NODE       3156   DOF  3
   INSTANCE: SPIRAL-1                                                                        
          FORCE     EQUILIBRIUM NOT ACHIEVED WITHIN TOLERANCE.
 
	SYMMETRIC PURE THREAD-BASED DIRECT SPARSE SOLVER RUNNING ON
 	1 HOST x 1 MPI RANK PER HOST x 1 THREAD PER RANK
        NUMBER OF EQUATIONS:  90774
        NUMBER OF RHS:        1
        NUMBER OF FLOPS:      6.037e+09
        SOLVER ELAPSED TIME:  228ms
 

 ***WARNING: THE SYSTEM MATRIX HAS 34422 NEGATIVE EIGENVALUES.

     NEGATIVE EIGENVALUES MEAN THAT THE SYSTEM MATRIX IS NOT 
     POSITIVE DEFINITE:
     FOR EXAMPLE, A BIFURCATION (BUCKLING) LOAD MAY HAVE BEEN EXCEEDED.
   ELEMENT SPIRAL-1.2 IS DISTORTING EXCESSIVELY.
   ELEMENT SPIRAL-1.3 IS DISTORTING EXCESSIVELY.
   ELEMENT SPIRAL-1.5 IS DISTORTING EXCESSIVELY.
   ELEMENT SPIRAL-1.7 IS DISTORTING EXCESSIVELY.
   ELEMENT SPIRAL-1.9 IS DISTORTING EXCESSIVELY.
   ELEMENT SPIRAL-1.10 IS DISTORTING EXCESSIVELY.
   ELEMENT SPIRAL-1.14 IS DISTORTING EXCESSIVELY.
   ELEMENT SPIRAL-1.16 IS DISTORTING EXCESSIVELY.
   ELEMENT SPIRAL-1.17 IS DISTORTING EXCESSIVELY.
   ELEMENT SPIRAL-1.19 IS DISTORTING EXCESSIVELY.
   ELEMENT SPIRAL-1.23 IS DISTORTING EXCESSIVELY.
   ELEMENT SPIRAL-1.24 IS DISTORTING EXCESSIVELY.
   ELEMENT SPIRAL-1.25 IS DISTORTING EXCESSIVELY.
   ELEMENT SPIRAL-1.26 IS DISTORTING EXCESSIVELY.
   ELEMENT SPIRAL-1.27 IS DISTORTING EXCESSIVELY.
   ELEMENT SPIRAL-1.28 IS DISTORTING EXCESSIVELY.
   ELEMENT SPIRAL-1.29 IS DISTORTING EXCESSIVELY.
   ELEMENT SPIRAL-1.31 IS DISTORTING EXCESSIVELY.
   ELEMENT SPIRAL-1.32 IS DISTORTING EXCESSIVELY.
   ELEMENT SPIRAL-1.33 IS DISTORTING EXCESSIVELY.
   ELEMENT SPIRAL-1.41 IS DISTORTING EXCESSIVELY.
   ELEMENT SPIRAL-1.42 IS DISTORTING EXCESSIVELY.
   ELEMENT SPIRAL-1.44 IS DISTORTING EXCESSIVELY.
   ELEMENT SPIRAL-1.46 IS DISTORTING EXCESSIVELY.
   ELEMENT SPIRAL-1.48 IS DISTORTING EXCESSIVELY.
   ELEMENT SPIRAL-1.51 IS DISTORTING EXCESSIVELY.
   ELEMENT SPIRAL-1.52 IS DISTORTING EXCESSIVELY.
   ELEMENT SPIRAL-1.53 IS DISTORTING EXCESSIVELY.
   ELEMENT SPIRAL-1.55 IS DISTORTING EXCESSIVELY.
   ELEMENT SPIRAL-1.59 IS DISTORTING EXCESSIVELY.
   ELEMENT SPIRAL-1.62 IS DISTORTING EXCESSIVELY.
   ELEMENT SPIRAL-1.66 IS DISTORTING EXCESSIVELY.
   ELEMENT SPIRAL-1.69 IS DISTORTING EXCESSIVELY.
   ELEMENT SPIRAL-1.70 IS DISTORTING EXCESSIVELY.
   ELEMENT SPIRAL-1.71 IS DISTORTING EXCESSIVELY.
   ELEMENT SPIRAL-1.73 IS DISTORTING EXCESSIVELY.
   ELEMENT SPIRAL-1.74 IS DISTORTING EXCESSIVELY.
   ELEMENT SPIRAL-1.78 IS DISTORTING EXCESSIVELY.
   ELEMENT SPIRAL-1.79 IS DISTORTING EXCESSIVELY.
   ELEMENT SPIRAL-1.81 IS DISTORTING EXCESSIVELY.
   ELEMENT SPIRAL-1.84 IS DISTORTING EXCESSIVELY.
   ELEMENT SPIRAL-1.85 IS DISTORTING EXCESSIVELY.
   ELEMENT SPIRAL-1.86 IS DISTORTING EXCESSIVELY.
   ELEMENT SPIRAL-1.87 IS DISTORTING EXCESSIVELY.
   ELEMENT SPIRAL-1.92 IS DISTORTING EXCESSIVELY.
   ELEMENT SPIRAL-1.93 IS DISTORTING EXCESSIVELY.
   ELEMENT SPIRAL-1.95 IS DISTORTING EXCESSIVELY.
   ELEMENT SPIRAL-1.96 IS DISTORTING EXCESSIVELY.
   ELEMENT SPIRAL-1.101 IS DISTORTING EXCESSIVELY.
   ELEMENT SPIRAL-1.103 IS DISTORTING EXCESSIVELY.
   ELEMENT SPIRAL-1.106 IS DISTORTING EXCESSIVELY.
   ELEMENT SPIRAL-1.107 IS DISTORTING EXCESSIVELY.
   ELEMENT SPIRAL-1.110 IS DISTORTING EXCESSIVELY.
   ELEMENT SPIRAL-1.113 IS DISTORTING EXCESSIVELY.
   ELEMENT SPIRAL-1.114 IS DISTORTING EXCESSIVELY.
   ELEMENT SPIRAL-1.115 IS DISTORTING EXCESSIVELY.
   ELEMENT SPIRAL-1.117 IS DISTORTING EXCESSIVELY.
   ELEMENT SPIRAL-1.125 IS DISTORTING EXCESSIVELY.
   ELEMENT SPIRAL-1.127 IS DISTORTING EXCESSIVELY.
   ELEMENT SPIRAL-1.130 IS DISTORTING EXCESSIVELY.
   ELEMENT SPIRAL-1.132 IS DISTORTING EXCESSIVELY.
   ELEMENT SPIRAL-1.135 IS DISTORTING EXCESSIVELY.
   ELEMENT SPIRAL-1.136 IS DISTORTING EXCESSIVELY.
   ELEMENT SPIRAL-1.137 IS DISTORTING EXCESSIVELY.
   ELEMENT SPIRAL-1.140 IS DISTORTING EXCESSIVELY.
   ELEMENT SPIRAL-1.144 IS DISTORTING EXCESSIVELY.
   ELEMENT SPIRAL-1.146 IS DISTORTING EXCESSIVELY.
   ELEMENT SPIRAL-1.147 IS DISTORTING EXCESSIVELY.
   ELEMENT SPIRAL-1.149 IS DISTORTING EXCESSIVELY.
   ELEMENT SPIRAL-1.152 IS DISTORTING EXCESSIVELY.
   ELEMENT SPIRAL-1.154 IS DISTORTING EXCESSIVELY.
   ELEMENT SPIRAL-1.155 IS DISTORTING EXCESSIVELY.
   ELEMENT SPIRAL-1.156 IS DISTORTING EXCESSIVELY.
   ELEMENT SPIRAL-1.157 IS DISTORTING EXCESSIVELY.
   ELEMENT SPIRAL-1.162 IS DISTORTING EXCESSIVELY.
   ELEMENT SPIRAL-1.163 IS DISTORTING EXCESSIVELY.
   ELEMENT SPIRAL-1.168 IS DISTORTING EXCESSIVELY.
   ELEMENT SPIRAL-1.170 IS DISTORTING EXCESSIVELY.
   ELEMENT SPIRAL-1.171 IS DISTORTING EXCESSIVELY.
   ELEMENT SPIRAL-1.172 IS DISTORTING EXCESSIVELY.
   ELEMENT SPIRAL-1.173 IS DISTORTING EXCESSIVELY.
   ELEMENT SPIRAL-1.175 IS DISTORTING EXCESSIVELY.
   ELEMENT SPIRAL-1.176 IS DISTORTING EXCESSIVELY.
   ELEMENT SPIRAL-1.177 IS DISTORTING EXCESSIVELY.
   ELEMENT SPIRAL-1.178 IS DISTORTING EXCESSIVELY.
   ELEMENT SPIRAL-1.180 IS DISTORTING EXCESSIVELY.
   ELEMENT SPIRAL-1.181 IS DISTORTING EXCESSIVELY.
   ELEMENT SPIRAL-1.183 IS DISTORTING EXCESSIVELY.
   ELEMENT SPIRAL-1.184 IS DISTORTING EXCESSIVELY.
   ELEMENT SPIRAL-1.185 IS DISTORTING EXCESSIVELY.
   ELEMENT SPIRAL-1.196 IS DISTORTING EXCESSIVELY.
   ELEMENT SPIRAL-1.204 IS DISTORTING EXCESSIVELY.
   ELEMENT SPIRAL-1.205 IS DISTORTING EXCESSIVELY.
   ELEMENT SPIRAL-1.208 IS DISTORTING EXCESSIVELY.
   ELEMENT SPIRAL-1.209 IS DISTORTING EXCESSIVELY.
   ELEMENT SPIRAL-1.210 IS DISTORTING EXCESSIVELY.
   ELEMENT SPIRAL-1.212 IS DISTORTING EXCESSIVELY.
   ELEMENT SPIRAL-1.213 IS DISTORTING EXCESSIVELY.
   ELEMENT SPIRAL-1.215 IS DISTORTING EXCESSIVELY.
   ELEMENT SPIRAL-1.217 IS DISTORTING EXCESSIVELY.
   ELEMENT SPIRAL-1.219 IS DISTORTING EXCESSIVELY.
   ELEMENT SPIRAL-1.223 IS DISTORTING EXCESSIVELY.
   ELEMENT SPIRAL-1.224 IS DISTORTING EXCESSIVELY.
   ELEMENT SPIRAL-1.225 IS DISTORTING EXCESSIVELY.
   ELEMENT SPIRAL-1.226 IS DISTORTING EXCESSIVELY.
   ELEMENT SPIRAL-1.228 IS DISTORTING EXCESSIVELY.
   ELEMENT SPIRAL-1.230 IS DISTORTING EXCESSIVELY.
   ELEMENT SPIRAL-1.233 IS DISTORTING EXCESSIVELY.
   ELEMENT SPIRAL-1.234 IS DISTORTING EXCESSIVELY.
   ELEMENT SPIRAL-1.237 IS DISTORTING EXCESSIVELY.
   ELEMENT SPIRAL-1.238 IS DISTORTING EXCESSIVELY.
   ELEMENT SPIRAL-1.240 IS DISTORTING EXCESSIVELY.
   ELEMENT SPIRAL-1.242 IS DISTORTING EXCESSIVELY.
   ELEMENT SPIRAL-1.243 IS DISTORTING EXCESSIVELY.
   ELEMENT SPIRAL-1.247 IS DISTORTING EXCESSIVELY.
   ELEMENT SPIRAL-1.248 IS DISTORTING EXCESSIVELY.
   ELEMENT SPIRAL-1.250 IS DISTORTING EXCESSIVELY.
   ELEMENT SPIRAL-1.253 IS DISTORTING EXCESSIVELY.
   ELEMENT SPIRAL-1.254 IS DISTORTING EXCESSIVELY.
   ELEMENT SPIRAL-1.255 IS DISTORTING EXCESSIVELY.
   ELEMENT SPIRAL-1.256 IS DISTORTING EXCESSIVELY.
   ELEMENT SPIRAL-1.259 IS DISTORTING EXCESSIVELY.
   ELEMENT SPIRAL-1.260 IS DISTORTING EXCESSIVELY.
   ELEMENT SPIRAL-1.261 IS DISTORTING EXCESSIVELY.
   ELEMENT SPIRAL-1.265 IS DISTORTING EXCESSIVELY.
   ELEMENT SPIRAL-1.266 IS DISTORTING EXCESSIVELY.
   ELEMENT SPIRAL-1.267 IS DISTORTING EXCESSIVELY.
   ELEMENT SPIRAL-1.268 IS DISTORTING EXCESSIVELY.
   ELEMENT SPIRAL-1.273 IS DISTORTING EXCESSIVELY.
   ELEMENT SPIRAL-1.274 IS DISTORTING EXCESSIVELY.
   ELEMENT SPIRAL-1.280 IS DISTORTING EXCESSIVELY.
   ELEMENT SPIRAL-1.281 IS DISTORTING EXCESSIVELY.
   ELEMENT SPIRAL-1.283 IS DISTORTING EXCESSIVELY.
   ELEMENT SPIRAL-1.286 IS DISTORTING EXCESSIVELY.
   ELEMENT SPIRAL-1.287 IS DISTORTING EXCESSIVELY.
   ELEMENT SPIRAL-1.288 IS DISTORTING EXCESSIVELY.
   ELEMENT SPIRAL-1.291 IS DISTORTING EXCESSIVELY.
   ELEMENT SPIRAL-1.292 IS DISTORTING EXCESSIVELY.
   ELEMENT SPIRAL-1.295 IS DISTORTING EXCESSIVELY.
   ELEMENT SPIRAL-1.296 IS DISTORTING EXCESSIVELY.
   ELEMENT SPIRAL-1.301 IS DISTORTING EXCESSIVELY.
   ELEMENT SPIRAL-1.302 IS DISTORTING EXCESSIVELY.
   ELEMENT SPIRAL-1.304 IS DISTORTING EXCESSIVELY.
   ELEMENT SPIRAL-1.305 IS DISTORTING EXCESSIVELY.
   ELEMENT SPIRAL-1.309 IS DISTORTING EXCESSIVELY.
   ELEMENT SPIRAL-1.314 IS DISTORTING EXCESSIVELY.
   ELEMENT SPIRAL-1.316 IS DISTORTING EXCESSIVELY.
   ELEMENT SPIRAL-1.317 IS DISTORTING EXCESSIVELY.
   ELEMENT SPIRAL-1.318 IS DISTORTING EXCESSIVELY.
   ELEMENT SPIRAL-1.319 IS DISTORTING EXCESSIVELY.
   ELEMENT SPIRAL-1.321 IS DISTORTING EXCESSIVELY.
   ELEMENT SPIRAL-1.322 IS DISTORTING EXCESSIVELY.
   ELEMENT SPIRAL-1.325 IS DISTORTING EXCESSIVELY.
   ELEMENT SPIRAL-1.328 IS DISTORTING EXCESSIVELY.
   ELEMENT SPIRAL-1.329 IS DISTORTING EXCESSIVELY.
   ELEMENT SPIRAL-1.330 IS DISTORTING EXCESSIVELY.
   ELEMENT SPIRAL-1.333 IS DISTORTING EXCESSIVELY.
   ELEMENT SPIRAL-1.336 IS DISTORTING EXCESSIVELY.
   ELEMENT SPIRAL-1.337 IS DISTORTING EXCESSIVELY.
   ELEMENT SPIRAL-1.339 IS DISTORTING EXCESSIVELY.
   ELEMENT SPIRAL-1.341 IS DISTORTING EXCESSIVELY.
   ELEMENT SPIRAL-1.342 IS DISTORTING EXCESSIVELY.
   ELEMENT SPIRAL-1.343 IS DISTORTING EXCESSIVELY.
   ELEMENT SPIRAL-1.346 IS DISTORTING EXCESSIVELY.
   ELEMENT SPIRAL-1.348 IS DISTORTING EXCESSIVELY.
   ELEMENT SPIRAL-1.349 IS DISTORTING EXCESSIVELY.
   ELEMENT SPIRAL-1.351 IS DISTORTING EXCESSIVELY.
   ELEMENT SPIRAL-1.352 IS DISTORTING EXCESSIVELY.
   ELEMENT SPIRAL-1.354 IS DISTORTING EXCESSIVELY.
   ELEMENT SPIRAL-1.355 IS DISTORTING EXCESSIVELY.
   ELEMENT SPIRAL-1.357 IS DISTORTING EXCESSIVELY.
   ELEMENT SPIRAL-1.360 IS DISTORTING EXCESSIVELY.
   ELEMENT SPIRAL-1.362 IS DISTORTING EXCESSIVELY.
   ELEMENT SPIRAL-1.364 IS DISTORTING EXCESSIVELY.
   ELEMENT SPIRAL-1.365 IS DISTORTING EXCESSIVELY.
   ELEMENT SPIRAL-1.368 IS DISTORTING EXCESSIVELY.
   ELEMENT SPIRAL-1.370 IS DISTORTING EXCESSIVELY.
   ELEMENT SPIRAL-1.371 IS DISTORTING EXCESSIVELY.
   ELEMENT SPIRAL-1.372 IS DISTORTING EXCESSIVELY.
   ELEMENT SPIRAL-1.374 IS DISTORTING EXCESSIVELY.
   ELEMENT SPIRAL-1.378 IS DISTORTING EXCESSIVELY.
   ELEMENT SPIRAL-1.379 IS DISTORTING EXCESSIVELY.
   ELEMENT SPIRAL-1.381 IS DISTORTING EXCESSIVELY.
   ELEMENT SPIRAL-1.383 IS DISTORTING EXCESSIVELY.
   ELEMENT SPIRAL-1.384 IS DISTORTING EXCESSIVELY.
   ELEMENT SPIRAL-1.385 IS DISTORTING EXCESSIVELY.
   ELEMENT SPIRAL-1.388 IS DISTORTING EXCESSIVELY.
   ELEMENT SPIRAL-1.391 IS DISTORTING EXCESSIVELY.
   ELEMENT SPIRAL-1.393 IS DISTORTING EXCESSIVELY.
   ELEMENT SPIRAL-1.395 IS DISTORTING EXCESSIVELY.
   ELEMENT SPIRAL-1.396 IS DISTORTING EXCESSIVELY.
   ELEMENT SPIRAL-1.398 IS DISTORTING EXCESSIVELY.
   ELEMENT SPIRAL-1.401 IS DISTORTING EXCESSIVELY.
   ELEMENT SPIRAL-1.410 IS DISTORTING EXCESSIVELY.
   ELEMENT SPIRAL-1.412 IS DISTORTING EXCESSIVELY.
   ELEMENT SPIRAL-1.413 IS DISTORTING EXCESSIVELY.
   ELEMENT SPIRAL-1.414 IS DISTORTING EXCESSIVELY.
   ELEMENT SPIRAL-1.415 IS DISTORTING EXCESSIVELY.
   ELEMENT SPIRAL-1.416 IS DISTORTING EXCESSIVELY.
   ELEMENT SPIRAL-1.417 IS DISTORTING EXCESSIVELY.
   ELEMENT SPIRAL-1.418 IS DISTORTING EXCESSIVELY.
   ELEMENT SPIRAL-1.424 IS DISTORTING EXCESSIVELY.
   ELEMENT SPIRAL-1.425 IS DISTORTING EXCESSIVELY.
   ELEMENT SPIRAL-1.428 IS DISTORTING EXCESSIVELY.
   ELEMENT SPIRAL-1.429 IS DISTORTING EXCESSIVELY.
   ELEMENT SPIRAL-1.432 IS DISTORTING EXCESSIVELY.
   ELEMENT SPIRAL-1.435 IS DISTORTING EXCESSIVELY.
   ELEMENT SPIRAL-1.438 IS DISTORTING EXCESSIVELY.
   ELEMENT SPIRAL-1.440 IS DISTORTING EXCESSIVELY.
   ELEMENT SPIRAL-1.442 IS DISTORTING EXCESSIVELY.
   ELEMENT SPIRAL-1.443 IS DISTORTING EXCESSIVELY.
   ELEMENT SPIRAL-1.446 IS DISTORTING EXCESSIVELY.
   ELEMENT SPIRAL-1.450 IS DISTORTING EXCESSIVELY.
   ELEMENT SPIRAL-1.451 IS DISTORTING EXCESSIVELY.
   ELEMENT SPIRAL-1.453 IS DISTORTING EXCESSIVELY.
   ELEMENT SPIRAL-1.454 IS DISTORTING EXCESSIVELY.
   ELEMENT SPIRAL-1.455 IS DISTORTING EXCESSIVELY.
   ELEMENT SPIRAL-1.456 IS DISTORTING EXCESSIVELY.
   ELEMENT SPIRAL-1.460 IS DISTORTING EXCESSIVELY.
   ELEMENT SPIRAL-1.461 IS DISTORTING EXCESSIVELY.
   ELEMENT SPIRAL-1.462 IS DISTORTING EXCESSIVELY.
   ELEMENT SPIRAL-1.463 IS DISTORTING EXCESSIVELY.
   ELEMENT SPIRAL-1.465 IS DISTORTING EXCESSIVELY.
   ELEMENT SPIRAL-1.468 IS DISTORTING EXCESSIVELY.
   ELEMENT SPIRAL-1.470 IS DISTORTING EXCESSIVELY.
   ELEMENT SPIRAL-1.472 IS DISTORTING EXCESSIVELY.
   ELEMENT SPIRAL-1.473 IS DISTORTING EXCESSIVELY.
   ELEMENT SPIRAL-1.474 IS DISTORTING EXCESSIVELY.
   ELEMENT SPIRAL-1.476 IS DISTORTING EXCESSIVELY.
   ELEMENT SPIRAL-1.477 IS DISTORTING EXCESSIVELY.
   ELEMENT SPIRAL-1.478 IS DISTORTING EXCESSIVELY.
   ELEMENT SPIRAL-1.482 IS DISTORTING EXCESSIVELY.
   ELEMENT SPIRAL-1.483 IS DISTORTING EXCESSIVELY.
   ELEMENT SPIRAL-1.486 IS DISTORTING EXCESSIVELY.
   ELEMENT SPIRAL-1.487 IS DISTORTING EXCESSIVELY.
   ELEMENT SPIRAL-1.490 IS DISTORTING EXCESSIVELY.
   ELEMENT SPIRAL-1.491 IS DISTORTING EXCESSIVELY.
   ELEMENT SPIRAL-1.492 IS DISTORTING EXCESSIVELY.
   ELEMENT SPIRAL-1.493 IS DISTORTING EXCESSIVELY.
   ELEMENT SPIRAL-1.494 IS DISTORTING EXCESSIVELY.
   ELEMENT SPIRAL-1.496 IS DISTORTING EXCESSIVELY.
   ELEMENT SPIRAL-1.498 IS DISTORTING EXCESSIVELY.
   ELEMENT SPIRAL-1.501 IS DISTORTING EXCESSIVELY.
   ELEMENT SPIRAL-1.504 IS DISTORTING EXCESSIVELY.
   ELEMENT SPIRAL-1.507 IS DISTORTING EXCESSIVELY.
   ELEMENT SPIRAL-1.508 IS DISTORTING EXCESSIVELY.
   ELEMENT SPIRAL-1.509 IS DISTORTING EXCESSIVELY.
   ELEMENT SPIRAL-1.513 IS DISTORTING EXCESSIVELY.
   ELEMENT SPIRAL-1.514 IS DISTORTING EXCESSIVELY.
   ELEMENT SPIRAL-1.515 IS DISTORTING EXCESSIVELY.
   ELEMENT SPIRAL-1.516 IS DISTORTING EXCESSIVELY.
   ELEMENT SPIRAL-1.520 IS DISTORTING EXCESSIVELY.
   ELEMENT SPIRAL-1.521 IS DISTORTING EXCESSIVELY.
   ELEMENT SPIRAL-1.523 IS DISTORTING EXCESSIVELY.
   ELEMENT SPIRAL-1.525 IS DISTORTING EXCESSIVELY.
   ELEMENT SPIRAL-1.526 IS DISTORTING EXCESSIVELY.
   ELEMENT SPIRAL-1.527 IS DISTORTING EXCESSIVELY.
   ELEMENT SPIRAL-1.531 IS DISTORTING EXCESSIVELY.
   ELEMENT SPIRAL-1.533 IS DISTORTING EXCESSIVELY.
   ELEMENT SPIRAL-1.535 IS DISTORTING EXCESSIVELY.
   ELEMENT SPIRAL-1.536 IS DISTORTING EXCESSIVELY.
   ELEMENT SPIRAL-1.537 IS DISTORTING EXCESSIVELY.
   ELEMENT SPIRAL-1.539 IS DISTORTING EXCESSIVELY.
   ELEMENT SPIRAL-1.545 IS DISTORTING EXCESSIVELY.
   ELEMENT SPIRAL-1.547 IS DISTORTING EXCESSIVELY.
   ELEMENT SPIRAL-1.548 IS DISTORTING EXCESSIVELY.
   ELEMENT SPIRAL-1.549 IS DISTORTING EXCESSIVELY.
   ELEMENT SPIRAL-1.550 IS DISTORTING EXCESSIVELY.
   ELEMENT SPIRAL-1.551 IS DISTORTING EXCESSIVELY.
   ELEMENT SPIRAL-1.553 IS DISTORTING EXCESSIVELY.
   ELEMENT SPIRAL-1.556 IS DISTORTING EXCESSIVELY.
   ELEMENT SPIRAL-1.558 IS DISTORTING EXCESSIVELY.
   ELEMENT SPIRAL-1.559 IS DISTORTING EXCESSIVELY.
   ELEMENT SPIRAL-1.560 IS DISTORTING EXCESSIVELY.
   ELEMENT SPIRAL-1.562 IS DISTORTING EXCESSIVELY.
   ELEMENT SPIRAL-1.567 IS DISTORTING EXCESSIVELY.
   ELEMENT SPIRAL-1.568 IS DISTORTING EXCESSIVELY.
   ELEMENT SPIRAL-1.570 IS DISTORTING EXCESSIVELY.
   ELEMENT SPIRAL-1.571 IS DISTORTING EXCESSIVELY.
   ELEMENT SPIRAL-1.572 IS DISTORTING EXCESSIVELY.
   ELEMENT SPIRAL-1.573 IS DISTORTING EXCESSIVELY.
   ELEMENT SPIRAL-1.574 IS DISTORTING EXCESSIVELY.
   ELEMENT SPIRAL-1.577 IS DISTORTING EXCESSIVELY.
   ELEMENT SPIRAL-1.578 IS DISTORTING EXCESSIVELY.
   ELEMENT SPIRAL-1.582 IS DISTORTING EXCESSIVELY.
   ELEMENT SPIRAL-1.586 IS DISTORTING EXCESSIVELY.
   ELEMENT SPIRAL-1.588 IS DISTORTING EXCESSIVELY.
   ELEMENT SPIRAL-1.589 IS DISTORTING EXCESSIVELY.
   ELEMENT SPIRAL-1.590 IS DISTORTING EXCESSIVELY.
   ELEMENT SPIRAL-1.591 IS DISTORTING EXCESSIVELY.
   ELEMENT SPIRAL-1.592 IS DISTORTING EXCESSIVELY.
   ELEMENT SPIRAL-1.595 IS DISTORTING EXCESSIVELY.
   ELEMENT SPIRAL-1.596 IS DISTORTING EXCESSIVELY.
   ELEMENT SPIRAL-1.598 IS DISTORTING EXCESSIVELY.
   ELEMENT SPIRAL-1.600 IS DISTORTING EXCESSIVELY.
   ELEMENT SPIRAL-1.602 IS DISTORTING EXCESSIVELY.
   ELEMENT SPIRAL-1.603 IS DISTORTING EXCESSIVELY.
   ELEMENT SPIRAL-1.604 IS DISTORTING EXCESSIVELY.
   ELEMENT SPIRAL-1.607 IS DISTORTING EXCESSIVELY.
   ELEMENT SPIRAL-1.608 IS DISTORTING EXCESSIVELY.
   ELEMENT SPIRAL-1.609 IS DISTORTING EXCESSIVELY.
   ELEMENT SPIRAL-1.611 IS DISTORTING EXCESSIVELY.
   ELEMENT SPIRAL-1.615 IS DISTORTING EXCESSIVELY.
   ELEMENT SPIRAL-1.618 IS DISTORTING EXCESSIVELY.
   ELEMENT SPIRAL-1.620 IS DISTORTING EXCESSIVELY.
   ELEMENT SPIRAL-1.623 IS DISTORTING EXCESSIVELY.
   ELEMENT SPIRAL-1.628 IS DISTORTING EXCESSIVELY.
   ELEMENT SPIRAL-1.631 IS DISTORTING EXCESSIVELY.
   ELEMENT SPIRAL-1.632 IS DISTORTING EXCESSIVELY.
   ELEMENT SPIRAL-1.635 IS DISTORTING EXCESSIVELY.
   ELEMENT SPIRAL-1.637 IS DISTORTING EXCESSIVELY.
   ELEMENT SPIRAL-1.639 IS DISTORTING EXCESSIVELY.
   ELEMENT SPIRAL-1.641 IS DISTORTING EXCESSIVELY.
   ELEMENT SPIRAL-1.642 IS DISTORTING EXCESSIVELY.
   ELEMENT SPIRAL-1.643 IS DISTORTING EXCESSIVELY.
   ELEMENT SPIRAL-1.644 IS DISTORTING EXCESSIVELY.
   ELEMENT SPIRAL-1.650 IS DISTORTING EXCESSIVELY.
   ELEMENT SPIRAL-1.651 IS DISTORTING EXCESSIVELY.
   ELEMENT SPIRAL-1.652 IS DISTORTING EXCESSIVELY.
   ELEMENT SPIRAL-1.654 IS DISTORTING EXCESSIVELY.
   ELEMENT SPIRAL-1.658 IS DISTORTING EXCESSIVELY.
   ELEMENT SPIRAL-1.659 IS DISTORTING EXCESSIVELY.
   ELEMENT SPIRAL-1.661 IS DISTORTING EXCESSIVELY.
   ELEMENT SPIRAL-1.662 IS DISTORTING EXCESSIVELY.
   ELEMENT SPIRAL-1.665 IS DISTORTING EXCESSIVELY.
   ELEMENT SPIRAL-1.674 IS DISTORTING EXCESSIVELY.
   ELEMENT SPIRAL-1.678 IS DISTORTING EXCESSIVELY.
   ELEMENT SPIRAL-1.682 IS DISTORTING EXCESSIVELY.
   ELEMENT SPIRAL-1.683 IS DISTORTING EXCESSIVELY.
   ELEMENT SPIRAL-1.684 IS DISTORTING EXCESSIVELY.
   ELEMENT SPIRAL-1.688 IS DISTORTING EXCESSIVELY.
   ELEMENT SPIRAL-1.690 IS DISTORTING EXCESSIVELY.
   ELEMENT SPIRAL-1.691 IS DISTORTING EXCESSIVELY.
   ELEMENT SPIRAL-1.695 IS DISTORTING EXCESSIVELY.
   ELEMENT SPIRAL-1.698 IS DISTORTING EXCESSIVELY.
   ELEMENT SPIRAL-1.699 IS DISTORTING EXCESSIVELY.
   ELEMENT SPIRAL-1.702 IS DISTORTING EXCESSIVELY.
   ELEMENT SPIRAL-1.703 IS DISTORTING EXCESSIVELY.
   ELEMENT SPIRAL-1.707 IS DISTORTING EXCESSIVELY.
   ELEMENT SPIRAL-1.711 IS DISTORTING EXCESSIVELY.
   ELEMENT SPIRAL-1.713 IS DISTORTING EXCESSIVELY.
   ELEMENT SPIRAL-1.716 IS DISTORTING EXCESSIVELY.
   ELEMENT SPIRAL-1.717 IS DISTORTING EXCESSIVELY.
   ELEMENT SPIRAL-1.719 IS DISTORTING EXCESSIVELY.
   ELEMENT SPIRAL-1.721 IS DISTORTING EXCESSIVELY.
   ELEMENT SPIRAL-1.722 IS DISTORTING EXCESSIVELY.
   ELEMENT SPIRAL-1.723 IS DISTORTING EXCESSIVELY.
   ELEMENT SPIRAL-1.724 IS DISTORTING EXCESSIVELY.
   ELEMENT SPIRAL-1.728 IS DISTORTING EXCESSIVELY.
   ELEMENT SPIRAL-1.729 IS DISTORTING EXCESSIVELY.
   ELEMENT SPIRAL-1.736 IS DISTORTING EXCESSIVELY.
   ELEMENT SPIRAL-1.737 IS DISTORTING EXCESSIVELY.
   ELEMENT SPIRAL-1.738 IS DISTORTING EXCESSIVELY.
   ELEMENT SPIRAL-1.740 IS DISTORTING EXCESSIVELY.
   ELEMENT SPIRAL-1.741 IS DISTORTING EXCESSIVELY.
   ELEMENT SPIRAL-1.742 IS DISTORTING EXCESSIVELY.
   ELEMENT SPIRAL-1.743 IS DISTORTING EXCESSIVELY.
   ELEMENT SPIRAL-1.744 IS DISTORTING EXCESSIVELY.
   ELEMENT SPIRAL-1.745 IS DISTORTING EXCESSIVELY.
   ELEMENT SPIRAL-1.747 IS DISTORTING EXCESSIVELY.
   ELEMENT SPIRAL-1.748 IS DISTORTING EXCESSIVELY.
   ELEMENT SPIRAL-1.751 IS DISTORTING EXCESSIVELY.
   ELEMENT SPIRAL-1.755 IS DISTORTING EXCESSIVELY.
   ELEMENT SPIRAL-1.756 IS DISTORTING EXCESSIVELY.
   ELEMENT SPIRAL-1.759 IS DISTORTING EXCESSIVELY.
   ELEMENT SPIRAL-1.760 IS DISTORTING EXCESSIVELY.
   ELEMENT SPIRAL-1.762 IS DISTORTING EXCESSIVELY.
   ELEMENT SPIRAL-1.764 IS DISTORTING EXCESSIVELY.
   ELEMENT SPIRAL-1.766 IS DISTORTING EXCESSIVELY.
   ELEMENT SPIRAL-1.768 IS DISTORTING EXCESSIVELY.
   ELEMENT SPIRAL-1.770 IS DISTORTING EXCESSIVELY.
   ELEMENT SPIRAL-1.771 IS DISTORTING EXCESSIVELY.
   ELEMENT SPIRAL-1.772 IS DISTORTING EXCESSIVELY.
   ELEMENT SPIRAL-1.773 IS DISTORTING EXCESSIVELY.
   ELEMENT SPIRAL-1.775 IS DISTORTING EXCESSIVELY.
   ELEMENT SPIRAL-1.776 IS DISTORTING EXCESSIVELY.
   ELEMENT SPIRAL-1.779 IS DISTORTING EXCESSIVELY.
   ELEMENT SPIRAL-1.781 IS DISTORTING EXCESSIVELY.
   ELEMENT SPIRAL-1.782 IS DISTORTING EXCESSIVELY.
   ELEMENT SPIRAL-1.785 IS DISTORTING EXCESSIVELY.
   ELEMENT SPIRAL-1.788 IS DISTORTING EXCESSIVELY.
   ELEMENT SPIRAL-1.789 IS DISTORTING EXCESSIVELY.
   ELEMENT SPIRAL-1.790 IS DISTORTING EXCESSIVELY.
   ELEMENT SPIRAL-1.791 IS DISTORTING EXCESSIVELY.
   ELEMENT SPIRAL-1.793 IS DISTORTING EXCESSIVELY.
   ELEMENT SPIRAL-1.794 IS DISTORTING EXCESSIVELY.
   ELEMENT SPIRAL-1.795 IS DISTORTING EXCESSIVELY.
   ELEMENT SPIRAL-1.799 IS DISTORTING EXCESSIVELY.
   ELEMENT SPIRAL-1.801 IS DISTORTING EXCESSIVELY.
   ELEMENT SPIRAL-1.802 IS DISTORTING EXCESSIVELY.
   ELEMENT SPIRAL-1.804 IS DISTORTING EXCESSIVELY.
   ELEMENT SPIRAL-1.805 IS DISTORTING EXCESSIVELY.
   ELEMENT SPIRAL-1.806 IS DISTORTING EXCESSIVELY.
   ELEMENT SPIRAL-1.807 IS DISTORTING EXCESSIVELY.
   ELEMENT SPIRAL-1.808 IS DISTORTING EXCESSIVELY.
   ELEMENT SPIRAL-1.810 IS DISTORTING EXCESSIVELY.
   ELEMENT SPIRAL-1.813 IS DISTORTING EXCESSIVELY.
   ELEMENT SPIRAL-1.814 IS DISTORTING EXCESSIVELY.
   ELEMENT SPIRAL-1.815 IS DISTORTING EXCESSIVELY.
   ELEMENT SPIRAL-1.819 IS DISTORTING EXCESSIVELY.
   ELEMENT SPIRAL-1.821 IS DISTORTING EXCESSIVELY.
   ELEMENT SPIRAL-1.822 IS DISTORTING EXCESSIVELY.
   ELEMENT SPIRAL-1.823 IS DISTORTING EXCESSIVELY.
   ELEMENT SPIRAL-1.827 IS DISTORTING EXCESSIVELY.
   ELEMENT SPIRAL-1.828 IS DISTORTING EXCESSIVELY.
   ELEMENT SPIRAL-1.829 IS DISTORTING EXCESSIVELY.
   ELEMENT SPIRAL-1.833 IS DISTORTING EXCESSIVELY.
   ELEMENT SPIRAL-1.834 IS DISTORTING EXCESSIVELY.
   ELEMENT SPIRAL-1.835 IS DISTORTING EXCESSIVELY.
   ELEMENT SPIRAL-1.836 IS DISTORTING EXCESSIVELY.
   ELEMENT SPIRAL-1.840 IS DISTORTING EXCESSIVELY.
   ELEMENT SPIRAL-1.843 IS DISTORTING EXCESSIVELY.
   ELEMENT SPIRAL-1.845 IS DISTORTING EXCESSIVELY.
   ELEMENT SPIRAL-1.846 IS DISTORTING EXCESSIVELY.
   ELEMENT SPIRAL-1.847 IS DISTORTING EXCESSIVELY.
   ELEMENT SPIRAL-1.848 IS DISTORTING EXCESSIVELY.
   ELEMENT SPIRAL-1.851 IS DISTORTING EXCESSIVELY.
   ELEMENT SPIRAL-1.853 IS DISTORTING EXCESSIVELY.
   ELEMENT SPIRAL-1.855 IS DISTORTING EXCESSIVELY.
   ELEMENT SPIRAL-1.857 IS DISTORTING EXCESSIVELY.
   ELEMENT SPIRAL-1.860 IS DISTORTING EXCESSIVELY.
   ELEMENT SPIRAL-1.863 IS DISTORTING EXCESSIVELY.
   ELEMENT SPIRAL-1.865 IS DISTORTING EXCESSIVELY.
   ELEMENT SPIRAL-1.868 IS DISTORTING EXCESSIVELY.
   ELEMENT SPIRAL-1.871 IS DISTORTING EXCESSIVELY.
   ELEMENT SPIRAL-1.873 IS DISTORTING EXCESSIVELY.
   ELEMENT SPIRAL-1.874 IS DISTORTING EXCESSIVELY.
   ELEMENT SPIRAL-1.878 IS DISTORTING EXCESSIVELY.
   ELEMENT SPIRAL-1.884 IS DISTORTING EXCESSIVELY.
   ELEMENT SPIRAL-1.886 IS DISTORTING EXCESSIVELY.
   ELEMENT SPIRAL-1.887 IS DISTORTING EXCESSIVELY.
   ELEMENT SPIRAL-1.890 IS DISTORTING EXCESSIVELY.
   ELEMENT SPIRAL-1.893 IS DISTORTING EXCESSIVELY.
   ELEMENT SPIRAL-1.894 IS DISTORTING EXCESSIVELY.
   ELEMENT SPIRAL-1.895 IS DISTORTING EXCESSIVELY.
   ELEMENT SPIRAL-1.896 IS DISTORTING EXCESSIVELY.
   ELEMENT SPIRAL-1.897 IS DISTORTING EXCESSIVELY.
   ELEMENT SPIRAL-1.898 IS DISTORTING EXCESSIVELY.
   ELEMENT SPIRAL-1.899 IS DISTORTING EXCESSIVELY.
   ELEMENT SPIRAL-1.900 IS DISTORTING EXCESSIVELY.
   ELEMENT SPIRAL-1.903 IS DISTORTING EXCESSIVELY.
   ELEMENT SPIRAL-1.906 IS DISTORTING EXCESSIVELY.
   ELEMENT SPIRAL-1.909 IS DISTORTING EXCESSIVELY.
   ELEMENT SPIRAL-1.910 IS DISTORTING EXCESSIVELY.
   ELEMENT SPIRAL-1.915 IS DISTORTING EXCESSIVELY.
   ELEMENT SPIRAL-1.916 IS DISTORTING EXCESSIVELY.
   ELEMENT SPIRAL-1.917 IS DISTORTING EXCESSIVELY.
   ELEMENT SPIRAL-1.918 IS DISTORTING EXCESSIVELY.
   ELEMENT SPIRAL-1.921 IS DISTORTING EXCESSIVELY.
   ELEMENT SPIRAL-1.922 IS DISTORTING EXCESSIVELY.
   ELEMENT SPIRAL-1.923 IS DISTORTING EXCESSIVELY.
   ELEMENT SPIRAL-1.924 IS DISTORTING EXCESSIVELY.
   ELEMENT SPIRAL-1.925 IS DISTORTING EXCESSIVELY.
   ELEMENT SPIRAL-1.929 IS DISTORTING EXCESSIVELY.
   ELEMENT SPIRAL-1.933 IS DISTORTING EXCESSIVELY.
   ELEMENT SPIRAL-1.935 IS DISTORTING EXCESSIVELY.
   ELEMENT SPIRAL-1.936 IS DISTORTING EXCESSIVELY.
   ELEMENT SPIRAL-1.943 IS DISTORTING EXCESSIVELY.
   ELEMENT SPIRAL-1.944 IS DISTORTING EXCESSIVELY.
   ELEMENT SPIRAL-1.947 IS DISTORTING EXCESSIVELY.
   ELEMENT SPIRAL-1.948 IS DISTORTING EXCESSIVELY.
   ELEMENT SPIRAL-1.950 IS DISTORTING EXCESSIVELY.
   ELEMENT SPIRAL-1.951 IS DISTORTING EXCESSIVELY.
   ELEMENT SPIRAL-1.952 IS DISTORTING EXCESSIVELY.
   ELEMENT SPIRAL-1.958 IS DISTORTING EXCESSIVELY.
   ELEMENT SPIRAL-1.960 IS DISTORTING EXCESSIVELY.
   ELEMENT SPIRAL-1.961 IS DISTORTING EXCESSIVELY.
   ELEMENT SPIRAL-1.963 IS DISTORTING EXCESSIVELY.
   ELEMENT SPIRAL-1.965 IS DISTORTING EXCESSIVELY.
   ELEMENT SPIRAL-1.967 IS DISTORTING EXCESSIVELY.
   ELEMENT SPIRAL-1.971 IS DISTORTING EXCESSIVELY.
   ELEMENT SPIRAL-1.972 IS DISTORTING EXCESSIVELY.
   ELEMENT SPIRAL-1.975 IS DISTORTING EXCESSIVELY.
   ELEMENT SPIRAL-1.978 IS DISTORTING EXCESSIVELY.
   ELEMENT SPIRAL-1.979 IS DISTORTING EXCESSIVELY.
   ELEMENT SPIRAL-1.982 IS DISTORTING EXCESSIVELY.
   ELEMENT SPIRAL-1.983 IS DISTORTING EXCESSIVELY.
   ELEMENT SPIRAL-1.984 IS DISTORTING EXCESSIVELY.
   ELEMENT SPIRAL-1.989 IS DISTORTING EXCESSIVELY.
   ELEMENT SPIRAL-1.990 IS DISTORTING EXCESSIVELY.
   ELEMENT SPIRAL-1.993 IS DISTORTING EXCESSIVELY.
   ELEMENT SPIRAL-1.995 IS DISTORTING EXCESSIVELY.
   ELEMENT SPIRAL-1.996 IS DISTORTING EXCESSIVELY.
   ELEMENT SPIRAL-1.998 IS DISTORTING EXCESSIVELY.
   ELEMENT SPIRAL-1.999 IS DISTORTING EXCESSIVELY.
   ELEMENT SPIRAL-1.1000 IS DISTORTING EXCESSIVELY.
   ELEMENT SPIRAL-1.1001 IS DISTORTING EXCESSIVELY.
   ELEMENT SPIRAL-1.1006 IS DISTORTING EXCESSIVELY.
   ELEMENT SPIRAL-1.1007 IS DISTORTING EXCESSIVELY.
   ELEMENT SPIRAL-1.1009 IS DISTORTING EXCESSIVELY.
   ELEMENT SPIRAL-1.1010 IS DISTORTING EXCESSIVELY.
   ELEMENT SPIRAL-1.1011 IS DISTORTING EXCESSIVELY.
   ELEMENT SPIRAL-1.1016 IS DISTORTING EXCESSIVELY.
   ELEMENT SPIRAL-1.1018 IS DISTORTING EXCESSIVELY.
   ELEMENT SPIRAL-1.1021 IS DISTORTING EXCESSIVELY.
   ELEMENT SPIRAL-1.1022 IS DISTORTING EXCESSIVELY.
   ELEMENT SPIRAL-1.1023 IS DISTORTING EXCESSIVELY.
   ELEMENT SPIRAL-1.1025 IS DISTORTING EXCESSIVELY.
   ELEMENT SPIRAL-1.1026 IS DISTORTING EXCESSIVELY.
   ELEMENT SPIRAL-1.1029 IS DISTORTING EXCESSIVELY.
   ELEMENT SPIRAL-1.1033 IS DISTORTING EXCESSIVELY.
   ELEMENT SPIRAL-1.1034 IS DISTORTING EXCESSIVELY.
   ELEMENT SPIRAL-1.1037 IS DISTORTING EXCESSIVELY.
   ELEMENT SPIRAL-1.1038 IS DISTORTING EXCESSIVELY.
   ELEMENT SPIRAL-1.1039 IS DISTORTING EXCESSIVELY.
   ELEMENT SPIRAL-1.1040 IS DISTORTING EXCESSIVELY.
   ELEMENT SPIRAL-1.1044 IS DISTORTING EXCESSIVELY.
   ELEMENT SPIRAL-1.1045 IS DISTORTING EXCESSIVELY.
   ELEMENT SPIRAL-1.1046 IS DISTORTING EXCESSIVELY.
   ELEMENT SPIRAL-1.1049 IS DISTORTING EXCESSIVELY.
   ELEMENT SPIRAL-1.1050 IS DISTORTING EXCESSIVELY.
   ELEMENT SPIRAL-1.1051 IS DISTORTING EXCESSIVELY.
   ELEMENT SPIRAL-1.1052 IS DISTORTING EXCESSIVELY.
   ELEMENT SPIRAL-1.1056 IS DISTORTING EXCESSIVELY.
   ELEMENT SPIRAL-1.1060 IS DISTORTING EXCESSIVELY.
   ELEMENT SPIRAL-1.1062 IS DISTORTING EXCESSIVELY.
   ELEMENT SPIRAL-1.1063 IS DISTORTING EXCESSIVELY.
   ELEMENT SPIRAL-1.1065 IS DISTORTING EXCESSIVELY.
   ELEMENT SPIRAL-1.1067 IS DISTORTING EXCESSIVELY.
   ELEMENT SPIRAL-1.1068 IS DISTORTING EXCESSIVELY.
   ELEMENT SPIRAL-1.1070 IS DISTORTING EXCESSIVELY.
   ELEMENT SPIRAL-1.1071 IS DISTORTING EXCESSIVELY.
   ELEMENT SPIRAL-1.1072 IS DISTORTING EXCESSIVELY.
   ELEMENT SPIRAL-1.1073 IS DISTORTING EXCESSIVELY.
   ELEMENT SPIRAL-1.1076 IS DISTORTING EXCESSIVELY.
   ELEMENT SPIRAL-1.1077 IS DISTORTING EXCESSIVELY.
   ELEMENT SPIRAL-1.1079 IS DISTORTING EXCESSIVELY.
   ELEMENT SPIRAL-1.1080 IS DISTORTING EXCESSIVELY.
   ELEMENT SPIRAL-1.1082 IS DISTORTING EXCESSIVELY.
   ELEMENT SPIRAL-1.1084 IS DISTORTING EXCESSIVELY.
   ELEMENT SPIRAL-1.1086 IS DISTORTING EXCESSIVELY.
   ELEMENT SPIRAL-1.1088 IS DISTORTING EXCESSIVELY.
   ELEMENT SPIRAL-1.1089 IS DISTORTING EXCESSIVELY.
   ELEMENT SPIRAL-1.1090 IS DISTORTING EXCESSIVELY.
   ELEMENT SPIRAL-1.1097 IS DISTORTING EXCESSIVELY.
   ELEMENT SPIRAL-1.1100 IS DISTORTING EXCESSIVELY.
   ELEMENT SPIRAL-1.1102 IS DISTORTING EXCESSIVELY.
   ELEMENT SPIRAL-1.1104 IS DISTORTING EXCESSIVELY.
   ELEMENT SPIRAL-1.1105 IS DISTORTING EXCESSIVELY.
   ELEMENT SPIRAL-1.1107 IS DISTORTING EXCESSIVELY.
   ELEMENT SPIRAL-1.1110 IS DISTORTING EXCESSIVELY.
   ELEMENT SPIRAL-1.1112 IS DISTORTING EXCESSIVELY.
   ELEMENT SPIRAL-1.1113 IS DISTORTING EXCESSIVELY.
   ELEMENT SPIRAL-1.1115 IS DISTORTING EXCESSIVELY.
   ELEMENT SPIRAL-1.1116 IS DISTORTING EXCESSIVELY.
   ELEMENT SPIRAL-1.1117 IS DISTORTING EXCESSIVELY.
   ELEMENT SPIRAL-1.1119 IS DISTORTING EXCESSIVELY.
   ELEMENT SPIRAL-1.1120 IS DISTORTING EXCESSIVELY.
   ELEMENT SPIRAL-1.1122 IS DISTORTING EXCESSIVELY.
   ELEMENT SPIRAL-1.1124 IS DISTORTING EXCESSIVELY.
   ELEMENT SPIRAL-1.1125 IS DISTORTING EXCESSIVELY.
   ELEMENT SPIRAL-1.1127 IS DISTORTING EXCESSIVELY.
   ELEMENT SPIRAL-1.1129 IS DISTORTING EXCESSIVELY.
   ELEMENT SPIRAL-1.1130 IS DISTORTING EXCESSIVELY.
   ELEMENT SPIRAL-1.1131 IS DISTORTING EXCESSIVELY.
   ELEMENT SPIRAL-1.1133 IS DISTORTING EXCESSIVELY.
   ELEMENT SPIRAL-1.1135 IS DISTORTING EXCESSIVELY.
   ELEMENT SPIRAL-1.1137 IS DISTORTING EXCESSIVELY.
   ELEMENT SPIRAL-1.1138 IS DISTORTING EXCESSIVELY.
   ELEMENT SPIRAL-1.1142 IS DISTORTING EXCESSIVELY.
   ELEMENT SPIRAL-1.1143 IS DISTORTING EXCESSIVELY.
   ELEMENT SPIRAL-1.1144 IS DISTORTING EXCESSIVELY.
   ELEMENT SPIRAL-1.1146 IS DISTORTING EXCESSIVELY.
   ELEMENT SPIRAL-1.1147 IS DISTORTING EXCESSIVELY.
   ELEMENT SPIRAL-1.1149 IS DISTORTING EXCESSIVELY.
   ELEMENT SPIRAL-1.1150 IS DISTORTING EXCESSIVELY.
   ELEMENT SPIRAL-1.1151 IS DISTORTING EXCESSIVELY.
   ELEMENT SPIRAL-1.1156 IS DISTORTING EXCESSIVELY.
   ELEMENT SPIRAL-1.1157 IS DISTORTING EXCESSIVELY.
   ELEMENT SPIRAL-1.1158 IS DISTORTING EXCESSIVELY.
   ELEMENT SPIRAL-1.1161 IS DISTORTING EXCESSIVELY.
   ELEMENT SPIRAL-1.1162 IS DISTORTING EXCESSIVELY.
   ELEMENT SPIRAL-1.1164 IS DISTORTING EXCESSIVELY.
   ELEMENT SPIRAL-1.1165 IS DISTORTING EXCESSIVELY.
   ELEMENT SPIRAL-1.1169 IS DISTORTING EXCESSIVELY.
   ELEMENT SPIRAL-1.1171 IS DISTORTING EXCESSIVELY.
   ELEMENT SPIRAL-1.1172 IS DISTORTING EXCESSIVELY.
   ELEMENT SPIRAL-1.1173 IS DISTORTING EXCESSIVELY.
   ELEMENT SPIRAL-1.1176 IS DISTORTING EXCESSIVELY.
   ELEMENT SPIRAL-1.1177 IS DISTORTING EXCESSIVELY.
   ELEMENT SPIRAL-1.1179 IS DISTORTING EXCESSIVELY.
   ELEMENT SPIRAL-1.1180 IS DISTORTING EXCESSIVELY.
   ELEMENT SPIRAL-1.1181 IS DISTORTING EXCESSIVELY.
   ELEMENT SPIRAL-1.1182 IS DISTORTING EXCESSIVELY.
   ELEMENT SPIRAL-1.1183 IS DISTORTING EXCESSIVELY.
   ELEMENT SPIRAL-1.1185 IS DISTORTING EXCESSIVELY.
   ELEMENT SPIRAL-1.1197 IS DISTORTING EXCESSIVELY.
   ELEMENT SPIRAL-1.1198 IS DISTORTING EXCESSIVELY.
   ELEMENT SPIRAL-1.1200 IS DISTORTING EXCESSIVELY.
   ELEMENT SPIRAL-1.1203 IS DISTORTING EXCESSIVELY.
   ELEMENT SPIRAL-1.1204 IS DISTORTING EXCESSIVELY.
   ELEMENT SPIRAL-1.1205 IS DISTORTING EXCESSIVELY.
   ELEMENT SPIRAL-1.1206 IS DISTORTING EXCESSIVELY.
   ELEMENT SPIRAL-1.1210 IS DISTORTING EXCESSIVELY.
   ELEMENT SPIRAL-1.1211 IS DISTORTING EXCESSIVELY.
   ELEMENT SPIRAL-1.1212 IS DISTORTING EXCESSIVELY.
   ELEMENT SPIRAL-1.1213 IS DISTORTING EXCESSIVELY.
   ELEMENT SPIRAL-1.1214 IS DISTORTING EXCESSIVELY.
   ELEMENT SPIRAL-1.1215 IS DISTORTING EXCESSIVELY.
   ELEMENT SPIRAL-1.1216 IS DISTORTING EXCESSIVELY.
   ELEMENT SPIRAL-1.1221 IS DISTORTING EXCESSIVELY.
   ELEMENT SPIRAL-1.1226 IS DISTORTING EXCESSIVELY.
   ELEMENT SPIRAL-1.1228 IS DISTORTING EXCESSIVELY.
   ELEMENT SPIRAL-1.1229 IS DISTORTING EXCESSIVELY.
   ELEMENT SPIRAL-1.1231 IS DISTORTING EXCESSIVELY.
   ELEMENT SPIRAL-1.1232 IS DISTORTING EXCESSIVELY.
   ELEMENT SPIRAL-1.1233 IS DISTORTING EXCESSIVELY.
   ELEMENT SPIRAL-1.1234 IS DISTORTING EXCESSIVELY.
   ELEMENT SPIRAL-1.1235 IS DISTORTING EXCESSIVELY.
   ELEMENT SPIRAL-1.1238 IS DISTORTING EXCESSIVELY.
   ELEMENT SPIRAL-1.1239 IS DISTORTING EXCESSIVELY.
   ELEMENT SPIRAL-1.1246 IS DISTORTING EXCESSIVELY.
   ELEMENT SPIRAL-1.1247 IS DISTORTING EXCESSIVELY.
   ELEMENT SPIRAL-1.1248 IS DISTORTING EXCESSIVELY.
   ELEMENT SPIRAL-1.1249 IS DISTORTING EXCESSIVELY.
   ELEMENT SPIRAL-1.1250 IS DISTORTING EXCESSIVELY.
   ELEMENT SPIRAL-1.1251 IS DISTORTING EXCESSIVELY.
   ELEMENT SPIRAL-1.1253 IS DISTORTING EXCESSIVELY.
   ELEMENT SPIRAL-1.1254 IS DISTORTING EXCESSIVELY.
   ELEMENT SPIRAL-1.1257 IS DISTORTING EXCESSIVELY.
   ELEMENT SPIRAL-1.1258 IS DISTORTING EXCESSIVELY.
   ELEMENT SPIRAL-1.1259 IS DISTORTING EXCESSIVELY.
   ELEMENT SPIRAL-1.1260 IS DISTORTING EXCESSIVELY.
   ELEMENT SPIRAL-1.1262 IS DISTORTING EXCESSIVELY.
   ELEMENT SPIRAL-1.1264 IS DISTORTING EXCESSIVELY.
   ELEMENT SPIRAL-1.1267 IS DISTORTING EXCESSIVELY.
   ELEMENT SPIRAL-1.1269 IS DISTORTING EXCESSIVELY.
   ELEMENT SPIRAL-1.1270 IS DISTORTING EXCESSIVELY.
   ELEMENT SPIRAL-1.1271 IS DISTORTING EXCESSIVELY.
   ELEMENT SPIRAL-1.1276 IS DISTORTING EXCESSIVELY.
   ELEMENT SPIRAL-1.1280 IS DISTORTING EXCESSIVELY.
   ELEMENT SPIRAL-1.1281 IS DISTORTING EXCESSIVELY.
   ELEMENT SPIRAL-1.1283 IS DISTORTING EXCESSIVELY.
   ELEMENT SPIRAL-1.1284 IS DISTORTING EXCESSIVELY.
   ELEMENT SPIRAL-1.1290 IS DISTORTING EXCESSIVELY.
   ELEMENT SPIRAL-1.1292 IS DISTORTING EXCESSIVELY.
   ELEMENT SPIRAL-1.1294 IS DISTORTING EXCESSIVELY.
   ELEMENT SPIRAL-1.1296 IS DISTORTING EXCESSIVELY.
   ELEMENT SPIRAL-1.1297 IS DISTORTING EXCESSIVELY.
   ELEMENT SPIRAL-1.1298 IS DISTORTING EXCESSIVELY.
   ELEMENT SPIRAL-1.1301 IS DISTORTING EXCESSIVELY.
   ELEMENT SPIRAL-1.1302 IS DISTORTING EXCESSIVELY.
   ELEMENT SPIRAL-1.1304 IS DISTORTING EXCESSIVELY.
   ELEMENT SPIRAL-1.1307 IS DISTORTING EXCESSIVELY.
   ELEMENT SPIRAL-1.1309 IS DISTORTING EXCESSIVELY.
   ELEMENT SPIRAL-1.1310 IS DISTORTING EXCESSIVELY.
   ELEMENT SPIRAL-1.1313 IS DISTORTING EXCESSIVELY.
   ELEMENT SPIRAL-1.1314 IS DISTORTING EXCESSIVELY.
   ELEMENT SPIRAL-1.1316 IS DISTORTING EXCESSIVELY.
   ELEMENT SPIRAL-1.1318 IS DISTORTING EXCESSIVELY.
   ELEMENT SPIRAL-1.1321 IS DISTORTING EXCESSIVELY.
   ELEMENT SPIRAL-1.1322 IS DISTORTING EXCESSIVELY.
   ELEMENT SPIRAL-1.1327 IS DISTORTING EXCESSIVELY.
   ELEMENT SPIRAL-1.1329 IS DISTORTING EXCESSIVELY.
   ELEMENT SPIRAL-1.1330 IS DISTORTING EXCESSIVELY.
   ELEMENT SPIRAL-1.1332 IS DISTORTING EXCESSIVELY.
   ELEMENT SPIRAL-1.1335 IS DISTORTING EXCESSIVELY.
   ELEMENT SPIRAL-1.1336 IS DISTORTING EXCESSIVELY.
   ELEMENT SPIRAL-1.1337 IS DISTORTING EXCESSIVELY.
   ELEMENT SPIRAL-1.1338 IS DISTORTING EXCESSIVELY.
   ELEMENT SPIRAL-1.1341 IS DISTORTING EXCESSIVELY.
   ELEMENT SPIRAL-1.1342 IS DISTORTING EXCESSIVELY.
   ELEMENT SPIRAL-1.1344 IS DISTORTING EXCESSIVELY.
   ELEMENT SPIRAL-1.1345 IS DISTORTING EXCESSIVELY.
   ELEMENT SPIRAL-1.1346 IS DISTORTING EXCESSIVELY.
   ELEMENT SPIRAL-1.1348 IS DISTORTING EXCESSIVELY.
   ELEMENT SPIRAL-1.1349 IS DISTORTING EXCESSIVELY.
   ELEMENT SPIRAL-1.1351 IS DISTORTING EXCESSIVELY.
   ELEMENT SPIRAL-1.1357 IS DISTORTING EXCESSIVELY.
   ELEMENT SPIRAL-1.1360 IS DISTORTING EXCESSIVELY.
   ELEMENT SPIRAL-1.1363 IS DISTORTING EXCESSIVELY.
   ELEMENT SPIRAL-1.1364 IS DISTORTING EXCESSIVELY.
   ELEMENT SPIRAL-1.1367 IS DISTORTING EXCESSIVELY.
   ELEMENT SPIRAL-1.1369 IS DISTORTING EXCESSIVELY.
   ELEMENT SPIRAL-1.1371 IS DISTORTING EXCESSIVELY.
   ELEMENT SPIRAL-1.1372 IS DISTORTING EXCESSIVELY.
   ELEMENT SPIRAL-1.1373 IS DISTORTING EXCESSIVELY.
   ELEMENT SPIRAL-1.1374 IS DISTORTING EXCESSIVELY.
   ELEMENT SPIRAL-1.1378 IS DISTORTING EXCESSIVELY.
   ELEMENT SPIRAL-1.1380 IS DISTORTING EXCESSIVELY.
   ELEMENT SPIRAL-1.1381 IS DISTORTING EXCESSIVELY.
   ELEMENT SPIRAL-1.1382 IS DISTORTING EXCESSIVELY.
   ELEMENT SPIRAL-1.1383 IS DISTORTING EXCESSIVELY.
   ELEMENT SPIRAL-1.1384 IS DISTORTING EXCESSIVELY.
   ELEMENT SPIRAL-1.1389 IS DISTORTING EXCESSIVELY.
   ELEMENT SPIRAL-1.1390 IS DISTORTING EXCESSIVELY.
   ELEMENT SPIRAL-1.1392 IS DISTORTING EXCESSIVELY.
   ELEMENT SPIRAL-1.1393 IS DISTORTING EXCESSIVELY.
   ELEMENT SPIRAL-1.1396 IS DISTORTING EXCESSIVELY.
   ELEMENT SPIRAL-1.1397 IS DISTORTING EXCESSIVELY.
   ELEMENT SPIRAL-1.1399 IS DISTORTING EXCESSIVELY.
   ELEMENT SPIRAL-1.1403 IS DISTORTING EXCESSIVELY.
   ELEMENT SPIRAL-1.1406 IS DISTORTING EXCESSIVELY.
   ELEMENT SPIRAL-1.1408 IS DISTORTING EXCESSIVELY.
   ELEMENT SPIRAL-1.1409 IS DISTORTING EXCESSIVELY.
   ELEMENT SPIRAL-1.1410 IS DISTORTING EXCESSIVELY.
   ELEMENT SPIRAL-1.1412 IS DISTORTING EXCESSIVELY.
   ELEMENT SPIRAL-1.1413 IS DISTORTING EXCESSIVELY.
   ELEMENT SPIRAL-1.1414 IS DISTORTING EXCESSIVELY.
   ELEMENT SPIRAL-1.1416 IS DISTORTING EXCESSIVELY.
   ELEMENT SPIRAL-1.1418 IS DISTORTING EXCESSIVELY.
   ELEMENT SPIRAL-1.1421 IS DISTORTING EXCESSIVELY.
   ELEMENT SPIRAL-1.1422 IS DISTORTING EXCESSIVELY.
   ELEMENT SPIRAL-1.1423 IS DISTORTING EXCESSIVELY.
   ELEMENT SPIRAL-1.1426 IS DISTORTING EXCESSIVELY.
   ELEMENT SPIRAL-1.1429 IS DISTORTING EXCESSIVELY.
   ELEMENT SPIRAL-1.1430 IS DISTORTING EXCESSIVELY.
   ELEMENT SPIRAL-1.1431 IS DISTORTING EXCESSIVELY.
   ELEMENT SPIRAL-1.1432 IS DISTORTING EXCESSIVELY.
   ELEMENT SPIRAL-1.1433 IS DISTORTING EXCESSIVELY.
   ELEMENT SPIRAL-1.1436 IS DISTORTING EXCESSIVELY.
   ELEMENT SPIRAL-1.1438 IS DISTORTING EXCESSIVELY.
   ELEMENT SPIRAL-1.1439 IS DISTORTING EXCESSIVELY.
   ELEMENT SPIRAL-1.1441 IS DISTORTING EXCESSIVELY.
   ELEMENT SPIRAL-1.1442 IS DISTORTING EXCESSIVELY.
   ELEMENT SPIRAL-1.1444 IS DISTORTING EXCESSIVELY.
   ELEMENT SPIRAL-1.1446 IS DISTORTING EXCESSIVELY.
   ELEMENT SPIRAL-1.1447 IS DISTORTING EXCESSIVELY.
   ELEMENT SPIRAL-1.1449 IS DISTORTING EXCESSIVELY.
   ELEMENT SPIRAL-1.1450 IS DISTORTING EXCESSIVELY.
   ELEMENT SPIRAL-1.1451 IS DISTORTING EXCESSIVELY.
   ELEMENT SPIRAL-1.1453 IS DISTORTING EXCESSIVELY.
   ELEMENT SPIRAL-1.1456 IS DISTORTING EXCESSIVELY.
   ELEMENT SPIRAL-1.1457 IS DISTORTING EXCESSIVELY.
   ELEMENT SPIRAL-1.1458 IS DISTORTING EXCESSIVELY.
   ELEMENT SPIRAL-1.1459 IS DISTORTING EXCESSIVELY.
   ELEMENT SPIRAL-1.1463 IS DISTORTING EXCESSIVELY.
   ELEMENT SPIRAL-1.1464 IS DISTORTING EXCESSIVELY.
   ELEMENT SPIRAL-1.1468 IS DISTORTING EXCESSIVELY.
   ELEMENT SPIRAL-1.1469 IS DISTORTING EXCESSIVELY.
   ELEMENT SPIRAL-1.1470 IS DISTORTING EXCESSIVELY.
   ELEMENT SPIRAL-1.1471 IS DISTORTING EXCESSIVELY.
   ELEMENT SPIRAL-1.1472 IS DISTORTING EXCESSIVELY.
   ELEMENT SPIRAL-1.1474 IS DISTORTING EXCESSIVELY.
   ELEMENT SPIRAL-1.1475 IS DISTORTING EXCESSIVELY.
   ELEMENT SPIRAL-1.1478 IS DISTORTING EXCESSIVELY.
   ELEMENT SPIRAL-1.1479 IS DISTORTING EXCESSIVELY.
   ELEMENT SPIRAL-1.1481 IS DISTORTING EXCESSIVELY.
   ELEMENT SPIRAL-1.1482 IS DISTORTING EXCESSIVELY.
   ELEMENT SPIRAL-1.1483 IS DISTORTING EXCESSIVELY.
   ELEMENT SPIRAL-1.1484 IS DISTORTING EXCESSIVELY.
   ELEMENT SPIRAL-1.1485 IS DISTORTING EXCESSIVELY.
   ELEMENT SPIRAL-1.1486 IS DISTORTING EXCESSIVELY.
   ELEMENT SPIRAL-1.1487 IS DISTORTING EXCESSIVELY.
   ELEMENT SPIRAL-1.1488 IS DISTORTING EXCESSIVELY.
   ELEMENT SPIRAL-1.1491 IS DISTORTING EXCESSIVELY.
   ELEMENT SPIRAL-1.1492 IS DISTORTING EXCESSIVELY.
   ELEMENT SPIRAL-1.1493 IS DISTORTING EXCESSIVELY.
   ELEMENT SPIRAL-1.1494 IS DISTORTING EXCESSIVELY.
   ELEMENT SPIRAL-1.1495 IS DISTORTING EXCESSIVELY.
   ELEMENT SPIRAL-1.1497 IS DISTORTING EXCESSIVELY.
   ELEMENT SPIRAL-1.1499 IS DISTORTING EXCESSIVELY.
   ELEMENT SPIRAL-1.1501 IS DISTORTING EXCESSIVELY.
   ELEMENT SPIRAL-1.1503 IS DISTORTING EXCESSIVELY.
   ELEMENT SPIRAL-1.1505 IS DISTORTING EXCESSIVELY.
   ELEMENT SPIRAL-1.1506 IS DISTORTING EXCESSIVELY.
   ELEMENT SPIRAL-1.1508 IS DISTORTING EXCESSIVELY.
   ELEMENT SPIRAL-1.1510 IS DISTORTING EXCESSIVELY.
   ELEMENT SPIRAL-1.1511 IS DISTORTING EXCESSIVELY.
   ELEMENT SPIRAL-1.1515 IS DISTORTING EXCESSIVELY.
   ELEMENT SPIRAL-1.1517 IS DISTORTING EXCESSIVELY.
   ELEMENT SPIRAL-1.1521 IS DISTORTING EXCESSIVELY.
   ELEMENT SPIRAL-1.1522 IS DISTORTING EXCESSIVELY.
   ELEMENT SPIRAL-1.1523 IS DISTORTING EXCESSIVELY.
   ELEMENT SPIRAL-1.1527 IS DISTORTING EXCESSIVELY.
   ELEMENT SPIRAL-1.1528 IS DISTORTING EXCESSIVELY.
   ELEMENT SPIRAL-1.1529 IS DISTORTING EXCESSIVELY.
   ELEMENT SPIRAL-1.1531 IS DISTORTING EXCESSIVELY.
   ELEMENT SPIRAL-1.1533 IS DISTORTING EXCESSIVELY.
   ELEMENT SPIRAL-1.1534 IS DISTORTING EXCESSIVELY.
   ELEMENT SPIRAL-1.1536 IS DISTORTING EXCESSIVELY.
   ELEMENT SPIRAL-1.1537 IS DISTORTING EXCESSIVELY.
   ELEMENT SPIRAL-1.1540 IS DISTORTING EXCESSIVELY.
   ELEMENT SPIRAL-1.1541 IS DISTORTING EXCESSIVELY.
   ELEMENT SPIRAL-1.1543 IS DISTORTING EXCESSIVELY.
   ELEMENT SPIRAL-1.1544 IS DISTORTING EXCESSIVELY.
   ELEMENT SPIRAL-1.1548 IS DISTORTING EXCESSIVELY.
   ELEMENT SPIRAL-1.1551 IS DISTORTING EXCESSIVELY.
   ELEMENT SPIRAL-1.1554 IS DISTORTING EXCESSIVELY.
   ELEMENT SPIRAL-1.1556 IS DISTORTING EXCESSIVELY.
   ELEMENT SPIRAL-1.1557 IS DISTORTING EXCESSIVELY.
   ELEMENT SPIRAL-1.1558 IS DISTORTING EXCESSIVELY.
   ELEMENT SPIRAL-1.1559 IS DISTORTING EXCESSIVELY.
   ELEMENT SPIRAL-1.1560 IS DISTORTING EXCESSIVELY.
   ELEMENT SPIRAL-1.1561 IS DISTORTING EXCESSIVELY.
   ELEMENT SPIRAL-1.1562 IS DISTORTING EXCESSIVELY.
   ELEMENT SPIRAL-1.1564 IS DISTORTING EXCESSIVELY.
   ELEMENT SPIRAL-1.1565 IS DISTORTING EXCESSIVELY.
   ELEMENT SPIRAL-1.1568 IS DISTORTING EXCESSIVELY.
   ELEMENT SPIRAL-1.1569 IS DISTORTING EXCESSIVELY.
   ELEMENT SPIRAL-1.1571 IS DISTORTING EXCESSIVELY.
   ELEMENT SPIRAL-1.1573 IS DISTORTING EXCESSIVELY.
   ELEMENT SPIRAL-1.1574 IS DISTORTING EXCESSIVELY.
   ELEMENT SPIRAL-1.1576 IS DISTORTING EXCESSIVELY.
   ELEMENT SPIRAL-1.1580 IS DISTORTING EXCESSIVELY.
   ELEMENT SPIRAL-1.1581 IS DISTORTING EXCESSIVELY.
   ELEMENT SPIRAL-1.1582 IS DISTORTING EXCESSIVELY.
   ELEMENT SPIRAL-1.1583 IS DISTORTING EXCESSIVELY.
   ELEMENT SPIRAL-1.1584 IS DISTORTING EXCESSIVELY.
   ELEMENT SPIRAL-1.1585 IS DISTORTING EXCESSIVELY.
   ELEMENT SPIRAL-1.1594 IS DISTORTING EXCESSIVELY.
   ELEMENT SPIRAL-1.1596 IS DISTORTING EXCESSIVELY.
   ELEMENT SPIRAL-1.1601 IS DISTORTING EXCESSIVELY.
   ELEMENT SPIRAL-1.1603 IS DISTORTING EXCESSIVELY.
   ELEMENT SPIRAL-1.1604 IS DISTORTING EXCESSIVELY.
   ELEMENT SPIRAL-1.1605 IS DISTORTING EXCESSIVELY.
   ELEMENT SPIRAL-1.1607 IS DISTORTING EXCESSIVELY.
   ELEMENT SPIRAL-1.1609 IS DISTORTING EXCESSIVELY.
   ELEMENT SPIRAL-1.1610 IS DISTORTING EXCESSIVELY.
   ELEMENT SPIRAL-1.1611 IS DISTORTING EXCESSIVELY.
   ELEMENT SPIRAL-1.1614 IS DISTORTING EXCESSIVELY.
   ELEMENT SPIRAL-1.1618 IS DISTORTING EXCESSIVELY.
   ELEMENT SPIRAL-1.1619 IS DISTORTING EXCESSIVELY.
   ELEMENT SPIRAL-1.1622 IS DISTORTING EXCESSIVELY.
   ELEMENT SPIRAL-1.1625 IS DISTORTING EXCESSIVELY.
   ELEMENT SPIRAL-1.1626 IS DISTORTING EXCESSIVELY.
   ELEMENT SPIRAL-1.1627 IS DISTORTING EXCESSIVELY.
   ELEMENT SPIRAL-1.1630 IS DISTORTING EXCESSIVELY.
   ELEMENT SPIRAL-1.1632 IS DISTORTING EXCESSIVELY.
   ELEMENT SPIRAL-1.1633 IS DISTORTING EXCESSIVELY.
   ELEMENT SPIRAL-1.1634 IS DISTORTING EXCESSIVELY.
   ELEMENT SPIRAL-1.1636 IS DISTORTING EXCESSIVELY.
   ELEMENT SPIRAL-1.1637 IS DISTORTING EXCESSIVELY.
   ELEMENT SPIRAL-1.1639 IS DISTORTING EXCESSIVELY.
   ELEMENT SPIRAL-1.1640 IS DISTORTING EXCESSIVELY.
   ELEMENT SPIRAL-1.1642 IS DISTORTING EXCESSIVELY.
   ELEMENT SPIRAL-1.1651 IS DISTORTING EXCESSIVELY.
   ELEMENT SPIRAL-1.1652 IS DISTORTING EXCESSIVELY.
   ELEMENT SPIRAL-1.1653 IS DISTORTING EXCESSIVELY.
   ELEMENT SPIRAL-1.1655 IS DISTORTING EXCESSIVELY.
   ELEMENT SPIRAL-1.1657 IS DISTORTING EXCESSIVELY.
   ELEMENT SPIRAL-1.1658 IS DISTORTING EXCESSIVELY.
   ELEMENT SPIRAL-1.1659 IS DISTORTING EXCESSIVELY.
   ELEMENT SPIRAL-1.1661 IS DISTORTING EXCESSIVELY.
   ELEMENT SPIRAL-1.1662 IS DISTORTING EXCESSIVELY.
   ELEMENT SPIRAL-1.1663 IS DISTORTING EXCESSIVELY.
   ELEMENT SPIRAL-1.1664 IS DISTORTING EXCESSIVELY.
   ELEMENT SPIRAL-1.1665 IS DISTORTING EXCESSIVELY.
   ELEMENT SPIRAL-1.1670 IS DISTORTING EXCESSIVELY.
   ELEMENT SPIRAL-1.1672 IS DISTORTING EXCESSIVELY.
   ELEMENT SPIRAL-1.1674 IS DISTORTING EXCESSIVELY.
   ELEMENT SPIRAL-1.1675 IS DISTORTING EXCESSIVELY.
   ELEMENT SPIRAL-1.1677 IS DISTORTING EXCESSIVELY.
   ELEMENT SPIRAL-1.1678 IS DISTORTING EXCESSIVELY.
   ELEMENT SPIRAL-1.1681 IS DISTORTING EXCESSIVELY.
   ELEMENT SPIRAL-1.1682 IS DISTORTING EXCESSIVELY.
   ELEMENT SPIRAL-1.1684 IS DISTORTING EXCESSIVELY.
   ELEMENT SPIRAL-1.1685 IS DISTORTING EXCESSIVELY.
   ELEMENT SPIRAL-1.1687 IS DISTORTING EXCESSIVELY.
   ELEMENT SPIRAL-1.1689 IS DISTORTING EXCESSIVELY.
   ELEMENT SPIRAL-1.1691 IS DISTORTING EXCESSIVELY.
   ELEMENT SPIRAL-1.1692 IS DISTORTING EXCESSIVELY.
   ELEMENT SPIRAL-1.1693 IS DISTORTING EXCESSIVELY.
   ELEMENT SPIRAL-1.1695 IS DISTORTING EXCESSIVELY.
   ELEMENT SPIRAL-1.1696 IS DISTORTING EXCESSIVELY.
   ELEMENT SPIRAL-1.1697 IS DISTORTING EXCESSIVELY.
   ELEMENT SPIRAL-1.1698 IS DISTORTING EXCESSIVELY.
   ELEMENT SPIRAL-1.1701 IS DISTORTING EXCESSIVELY.
   ELEMENT SPIRAL-1.1702 IS DISTORTING EXCESSIVELY.
   ELEMENT SPIRAL-1.1703 IS DISTORTING EXCESSIVELY.
   ELEMENT SPIRAL-1.1704 IS DISTORTING EXCESSIVELY.
   ELEMENT SPIRAL-1.1708 IS DISTORTING EXCESSIVELY.
   ELEMENT SPIRAL-1.1709 IS DISTORTING EXCESSIVELY.
   ELEMENT SPIRAL-1.1710 IS DISTORTING EXCESSIVELY.
   ELEMENT SPIRAL-1.1711 IS DISTORTING EXCESSIVELY.
   ELEMENT SPIRAL-1.1715 IS DISTORTING EXCESSIVELY.
   ELEMENT SPIRAL-1.1717 IS DISTORTING EXCESSIVELY.
   ELEMENT SPIRAL-1.1718 IS DISTORTING EXCESSIVELY.
   ELEMENT SPIRAL-1.1719 IS DISTORTING EXCESSIVELY.
   ELEMENT SPIRAL-1.1723 IS DISTORTING EXCESSIVELY.
   ELEMENT SPIRAL-1.1727 IS DISTORTING EXCESSIVELY.
   ELEMENT SPIRAL-1.1729 IS DISTORTING EXCESSIVELY.
   ELEMENT SPIRAL-1.1734 IS DISTORTING EXCESSIVELY.
   ELEMENT SPIRAL-1.1735 IS DISTORTING EXCESSIVELY.
   ELEMENT SPIRAL-1.1738 IS DISTORTING EXCESSIVELY.
   ELEMENT SPIRAL-1.1740 IS DISTORTING EXCESSIVELY.
   ELEMENT SPIRAL-1.1741 IS DISTORTING EXCESSIVELY.
   ELEMENT SPIRAL-1.1742 IS DISTORTING EXCESSIVELY.
   ELEMENT SPIRAL-1.1743 IS DISTORTING EXCESSIVELY.
   ELEMENT SPIRAL-1.1744 IS DISTORTING EXCESSIVELY.
   ELEMENT SPIRAL-1.1745 IS DISTORTING EXCESSIVELY.
   ELEMENT SPIRAL-1.1747 IS DISTORTING EXCESSIVELY.
   ELEMENT SPIRAL-1.1748 IS DISTORTING EXCESSIVELY.
   ELEMENT SPIRAL-1.1749 IS DISTORTING EXCESSIVELY.
   ELEMENT SPIRAL-1.1750 IS DISTORTING EXCESSIVELY.
   ELEMENT SPIRAL-1.1751 IS DISTORTING EXCESSIVELY.
   ELEMENT SPIRAL-1.1755 IS DISTORTING EXCESSIVELY.
   ELEMENT SPIRAL-1.1756 IS DISTORTING EXCESSIVELY.
   ELEMENT SPIRAL-1.1758 IS DISTORTING EXCESSIVELY.
   ELEMENT SPIRAL-1.1762 IS DISTORTING EXCESSIVELY.
   ELEMENT SPIRAL-1.1764 IS DISTORTING EXCESSIVELY.
   ELEMENT SPIRAL-1.1769 IS DISTORTING EXCESSIVELY.
   ELEMENT SPIRAL-1.1770 IS DISTORTING EXCESSIVELY.
   ELEMENT SPIRAL-1.1771 IS DISTORTING EXCESSIVELY.
   ELEMENT SPIRAL-1.1772 IS DISTORTING EXCESSIVELY.
   ELEMENT SPIRAL-1.1775 IS DISTORTING EXCESSIVELY.
   ELEMENT SPIRAL-1.1776 IS DISTORTING EXCESSIVELY.
   ELEMENT SPIRAL-1.1779 IS DISTORTING EXCESSIVELY.
   ELEMENT SPIRAL-1.1780 IS DISTORTING EXCESSIVELY.
   ELEMENT SPIRAL-1.1782 IS DISTORTING EXCESSIVELY.
   ELEMENT SPIRAL-1.1784 IS DISTORTING EXCESSIVELY.
   ELEMENT SPIRAL-1.1789 IS DISTORTING EXCESSIVELY.
   ELEMENT SPIRAL-1.1790 IS DISTORTING EXCESSIVELY.
   ELEMENT SPIRAL-1.1794 IS DISTORTING EXCESSIVELY.
   ELEMENT SPIRAL-1.1795 IS DISTORTING EXCESSIVELY.
   ELEMENT SPIRAL-1.1798 IS DISTORTING EXCESSIVELY.
   ELEMENT SPIRAL-1.1799 IS DISTORTING EXCESSIVELY.
   ELEMENT SPIRAL-1.1800 IS DISTORTING EXCESSIVELY.
   ELEMENT SPIRAL-1.1802 IS DISTORTING EXCESSIVELY.
   ELEMENT SPIRAL-1.1804 IS DISTORTING EXCESSIVELY.
   ELEMENT SPIRAL-1.1806 IS DISTORTING EXCESSIVELY.
   ELEMENT SPIRAL-1.1808 IS DISTORTING EXCESSIVELY.
   ELEMENT SPIRAL-1.1810 IS DISTORTING EXCESSIVELY.
   ELEMENT SPIRAL-1.1811 IS DISTORTING EXCESSIVELY.
   ELEMENT SPIRAL-1.1815 IS DISTORTING EXCESSIVELY.
   ELEMENT SPIRAL-1.1816 IS DISTORTING EXCESSIVELY.
   ELEMENT SPIRAL-1.1818 IS DISTORTING EXCESSIVELY.
   ELEMENT SPIRAL-1.1820 IS DISTORTING EXCESSIVELY.
   ELEMENT SPIRAL-1.1822 IS DISTORTING EXCESSIVELY.
   ELEMENT SPIRAL-1.1823 IS DISTORTING EXCESSIVELY.
   ELEMENT SPIRAL-1.1824 IS DISTORTING EXCESSIVELY.
   ELEMENT SPIRAL-1.1826 IS DISTORTING EXCESSIVELY.
   ELEMENT SPIRAL-1.1827 IS DISTORTING EXCESSIVELY.
   ELEMENT SPIRAL-1.1828 IS DISTORTING EXCESSIVELY.
   ELEMENT SPIRAL-1.1832 IS DISTORTING EXCESSIVELY.
   ELEMENT SPIRAL-1.1833 IS DISTORTING EXCESSIVELY.
   ELEMENT SPIRAL-1.1834 IS DISTORTING EXCESSIVELY.
   ELEMENT SPIRAL-1.1835 IS DISTORTING EXCESSIVELY.
   ELEMENT SPIRAL-1.1836 IS DISTORTING EXCESSIVELY.
   ELEMENT SPIRAL-1.1837 IS DISTORTING EXCESSIVELY.
   ELEMENT SPIRAL-1.1838 IS DISTORTING EXCESSIVELY.
   ELEMENT SPIRAL-1.1839 IS DISTORTING EXCESSIVELY.
   ELEMENT SPIRAL-1.1841 IS DISTORTING EXCESSIVELY.
   ELEMENT SPIRAL-1.1843 IS DISTORTING EXCESSIVELY.
   ELEMENT SPIRAL-1.1846 IS DISTORTING EXCESSIVELY.
   ELEMENT SPIRAL-1.1847 IS DISTORTING EXCESSIVELY.
   ELEMENT SPIRAL-1.1853 IS DISTORTING EXCESSIVELY.
   ELEMENT SPIRAL-1.1855 IS DISTORTING EXCESSIVELY.
   ELEMENT SPIRAL-1.1858 IS DISTORTING EXCESSIVELY.
   ELEMENT SPIRAL-1.1859 IS DISTORTING EXCESSIVELY.
   ELEMENT SPIRAL-1.1863 IS DISTORTING EXCESSIVELY.
   ELEMENT SPIRAL-1.1865 IS DISTORTING EXCESSIVELY.
   ELEMENT SPIRAL-1.1867 IS DISTORTING EXCESSIVELY.
   ELEMENT SPIRAL-1.1872 IS DISTORTING EXCESSIVELY.
   ELEMENT SPIRAL-1.1873 IS DISTORTING EXCESSIVELY.
   ELEMENT SPIRAL-1.1876 IS DISTORTING EXCESSIVELY.
   ELEMENT SPIRAL-1.1877 IS DISTORTING EXCESSIVELY.
   ELEMENT SPIRAL-1.1878 IS DISTORTING EXCESSIVELY.
   ELEMENT SPIRAL-1.1881 IS DISTORTING EXCESSIVELY.
   ELEMENT SPIRAL-1.1883 IS DISTORTING EXCESSIVELY.
   ELEMENT SPIRAL-1.1885 IS DISTORTING EXCESSIVELY.
   ELEMENT SPIRAL-1.1887 IS DISTORTING EXCESSIVELY.
   ELEMENT SPIRAL-1.1888 IS DISTORTING EXCESSIVELY.
   ELEMENT SPIRAL-1.1889 IS DISTORTING EXCESSIVELY.
   ELEMENT SPIRAL-1.1891 IS DISTORTING EXCESSIVELY.
   ELEMENT SPIRAL-1.1892 IS DISTORTING EXCESSIVELY.
   ELEMENT SPIRAL-1.1894 IS DISTORTING EXCESSIVELY.
   ELEMENT SPIRAL-1.1895 IS DISTORTING EXCESSIVELY.
   ELEMENT SPIRAL-1.1897 IS DISTORTING EXCESSIVELY.
   ELEMENT SPIRAL-1.1901 IS DISTORTING EXCESSIVELY.
   ELEMENT SPIRAL-1.1902 IS DISTORTING EXCESSIVELY.
   ELEMENT SPIRAL-1.1905 IS DISTORTING EXCESSIVELY.
   ELEMENT SPIRAL-1.1907 IS DISTORTING EXCESSIVELY.
   ELEMENT SPIRAL-1.1908 IS DISTORTING EXCESSIVELY.
   ELEMENT SPIRAL-1.1910 IS DISTORTING EXCESSIVELY.
   ELEMENT SPIRAL-1.1912 IS DISTORTING EXCESSIVELY.
   ELEMENT SPIRAL-1.1914 IS DISTORTING EXCESSIVELY.
   ELEMENT SPIRAL-1.1915 IS DISTORTING EXCESSIVELY.
   ELEMENT SPIRAL-1.1916 IS DISTORTING EXCESSIVELY.
   ELEMENT SPIRAL-1.1920 IS DISTORTING EXCESSIVELY.
   ELEMENT SPIRAL-1.1921 IS DISTORTING EXCESSIVELY.
   ELEMENT SPIRAL-1.1922 IS DISTORTING EXCESSIVELY.
   ELEMENT SPIRAL-1.1924 IS DISTORTING EXCESSIVELY.
   ELEMENT SPIRAL-1.1927 IS DISTORTING EXCESSIVELY.
   ELEMENT SPIRAL-1.1928 IS DISTORTING EXCESSIVELY.
   ELEMENT SPIRAL-1.1930 IS DISTORTING EXCESSIVELY.
   ELEMENT SPIRAL-1.1936 IS DISTORTING EXCESSIVELY.
   ELEMENT SPIRAL-1.1937 IS DISTORTING EXCESSIVELY.
   ELEMENT SPIRAL-1.1939 IS DISTORTING EXCESSIVELY.
   ELEMENT SPIRAL-1.1940 IS DISTORTING EXCESSIVELY.
   ELEMENT SPIRAL-1.1942 IS DISTORTING EXCESSIVELY.
   ELEMENT SPIRAL-1.1947 IS DISTORTING EXCESSIVELY.
   ELEMENT SPIRAL-1.1948 IS DISTORTING EXCESSIVELY.
   ELEMENT SPIRAL-1.1949 IS DISTORTING EXCESSIVELY.
   ELEMENT SPIRAL-1.1951 IS DISTORTING EXCESSIVELY.
   ELEMENT SPIRAL-1.1955 IS DISTORTING EXCESSIVELY.
   ELEMENT SPIRAL-1.1956 IS DISTORTING EXCESSIVELY.
   ELEMENT SPIRAL-1.1958 IS DISTORTING EXCESSIVELY.
   ELEMENT SPIRAL-1.1961 IS DISTORTING EXCESSIVELY.
   ELEMENT SPIRAL-1.1962 IS DISTORTING EXCESSIVELY.
   ELEMENT SPIRAL-1.1964 IS DISTORTING EXCESSIVELY.
   ELEMENT SPIRAL-1.1965 IS DISTORTING EXCESSIVELY.
   ELEMENT SPIRAL-1.1967 IS DISTORTING EXCESSIVELY.
   ELEMENT SPIRAL-1.1968 IS DISTORTING EXCESSIVELY.
   ELEMENT SPIRAL-1.1970 IS DISTORTING EXCESSIVELY.
   ELEMENT SPIRAL-1.1971 IS DISTORTING EXCESSIVELY.
   ELEMENT SPIRAL-1.1973 IS DISTORTING EXCESSIVELY.
   ELEMENT SPIRAL-1.1974 IS DISTORTING EXCESSIVELY.
   ELEMENT SPIRAL-1.1975 IS DISTORTING EXCESSIVELY.
   ELEMENT SPIRAL-1.1977 IS DISTORTING EXCESSIVELY.
   ELEMENT SPIRAL-1.1978 IS DISTORTING EXCESSIVELY.
   ELEMENT SPIRAL-1.1979 IS DISTORTING EXCESSIVELY.
   ELEMENT SPIRAL-1.1980 IS DISTORTING EXCESSIVELY.
   ELEMENT SPIRAL-1.1984 IS DISTORTING EXCESSIVELY.
   ELEMENT SPIRAL-1.1985 IS DISTORTING EXCESSIVELY.
   ELEMENT SPIRAL-1.1986 IS DISTORTING EXCESSIVELY.
   ELEMENT SPIRAL-1.1991 IS DISTORTING EXCESSIVELY.
   ELEMENT SPIRAL-1.1995 IS DISTORTING EXCESSIVELY.
   ELEMENT SPIRAL-1.1996 IS DISTORTING EXCESSIVELY.
   ELEMENT SPIRAL-1.1999 IS DISTORTING EXCESSIVELY.
   ELEMENT SPIRAL-1.2001 IS DISTORTING EXCESSIVELY.
   ELEMENT SPIRAL-1.2002 IS DISTORTING EXCESSIVELY.
   ELEMENT SPIRAL-1.2004 IS DISTORTING EXCESSIVELY.
   ELEMENT SPIRAL-1.2007 IS DISTORTING EXCESSIVELY.
   ELEMENT SPIRAL-1.2008 IS DISTORTING EXCESSIVELY.
   ELEMENT SPIRAL-1.2010 IS DISTORTING EXCESSIVELY.
   ELEMENT SPIRAL-1.2014 IS DISTORTING EXCESSIVELY.
   ELEMENT SPIRAL-1.2015 IS DISTORTING EXCESSIVELY.
   ELEMENT SPIRAL-1.2017 IS DISTORTING EXCESSIVELY.
   ELEMENT SPIRAL-1.2019 IS DISTORTING EXCESSIVELY.
   ELEMENT SPIRAL-1.2023 IS DISTORTING EXCESSIVELY.
   ELEMENT SPIRAL-1.2025 IS DISTORTING EXCESSIVELY.
   ELEMENT SPIRAL-1.2026 IS DISTORTING EXCESSIVELY.
   ELEMENT SPIRAL-1.2028 IS DISTORTING EXCESSIVELY.
   ELEMENT SPIRAL-1.2032 IS DISTORTING EXCESSIVELY.
   ELEMENT SPIRAL-1.2033 IS DISTORTING EXCESSIVELY.
   ELEMENT SPIRAL-1.2034 IS DISTORTING EXCESSIVELY.
   ELEMENT SPIRAL-1.2035 IS DISTORTING EXCESSIVELY.
   ELEMENT SPIRAL-1.2045 IS DISTORTING EXCESSIVELY.
   ELEMENT SPIRAL-1.2047 IS DISTORTING EXCESSIVELY.
   ELEMENT SPIRAL-1.2054 IS DISTORTING EXCESSIVELY.
   ELEMENT SPIRAL-1.2056 IS DISTORTING EXCESSIVELY.
   ELEMENT SPIRAL-1.2059 IS DISTORTING EXCESSIVELY.
   ELEMENT SPIRAL-1.2060 IS DISTORTING EXCESSIVELY.
   ELEMENT SPIRAL-1.2063 IS DISTORTING EXCESSIVELY.
   ELEMENT SPIRAL-1.2064 IS DISTORTING EXCESSIVELY.
   ELEMENT SPIRAL-1.2065 IS DISTORTING EXCESSIVELY.
   ELEMENT SPIRAL-1.2067 IS DISTORTING EXCESSIVELY.
   ELEMENT SPIRAL-1.2070 IS DISTORTING EXCESSIVELY.
   ELEMENT SPIRAL-1.2072 IS DISTORTING EXCESSIVELY.
   ELEMENT SPIRAL-1.2074 IS DISTORTING EXCESSIVELY.
   ELEMENT SPIRAL-1.2075 IS DISTORTING EXCESSIVELY.
   ELEMENT SPIRAL-1.2076 IS DISTORTING EXCESSIVELY.
   ELEMENT SPIRAL-1.2080 IS DISTORTING EXCESSIVELY.
   ELEMENT SPIRAL-1.2081 IS DISTORTING EXCESSIVELY.
   ELEMENT SPIRAL-1.2083 IS DISTORTING EXCESSIVELY.
   ELEMENT SPIRAL-1.2086 IS DISTORTING EXCESSIVELY.
   ELEMENT SPIRAL-1.2087 IS DISTORTING EXCESSIVELY.
   ELEMENT SPIRAL-1.2088 IS DISTORTING EXCESSIVELY.
   ELEMENT SPIRAL-1.2089 IS DISTORTING EXCESSIVELY.
   ELEMENT SPIRAL-1.2091 IS DISTORTING EXCESSIVELY.
   ELEMENT SPIRAL-1.2093 IS DISTORTING EXCESSIVELY.
   ELEMENT SPIRAL-1.2094 IS DISTORTING EXCESSIVELY.
   ELEMENT SPIRAL-1.2095 IS DISTORTING EXCESSIVELY.
   ELEMENT SPIRAL-1.2096 IS DISTORTING EXCESSIVELY.
   ELEMENT SPIRAL-1.2099 IS DISTORTING EXCESSIVELY.
   ELEMENT SPIRAL-1.2103 IS DISTORTING EXCESSIVELY.
   ELEMENT SPIRAL-1.2106 IS DISTORTING EXCESSIVELY.
   ELEMENT SPIRAL-1.2110 IS DISTORTING EXCESSIVELY.
   ELEMENT SPIRAL-1.2114 IS DISTORTING EXCESSIVELY.
   ELEMENT SPIRAL-1.2118 IS DISTORTING EXCESSIVELY.
   ELEMENT SPIRAL-1.2121 IS DISTORTING EXCESSIVELY.
   ELEMENT SPIRAL-1.2123 IS DISTORTING EXCESSIVELY.
   ELEMENT SPIRAL-1.2124 IS DISTORTING EXCESSIVELY.
   ELEMENT SPIRAL-1.2125 IS DISTORTING EXCESSIVELY.
   ELEMENT SPIRAL-1.2126 IS DISTORTING EXCESSIVELY.
   ELEMENT SPIRAL-1.2128 IS DISTORTING EXCESSIVELY.
   ELEMENT SPIRAL-1.2130 IS DISTORTING EXCESSIVELY.
   ELEMENT SPIRAL-1.2133 IS DISTORTING EXCESSIVELY.
   ELEMENT SPIRAL-1.2136 IS DISTORTING EXCESSIVELY.
   ELEMENT SPIRAL-1.2137 IS DISTORTING EXCESSIVELY.
   ELEMENT SPIRAL-1.2139 IS DISTORTING EXCESSIVELY.
   ELEMENT SPIRAL-1.2140 IS DISTORTING EXCESSIVELY.
   ELEMENT SPIRAL-1.2143 IS DISTORTING EXCESSIVELY.
   ELEMENT SPIRAL-1.2145 IS DISTORTING EXCESSIVELY.
   ELEMENT SPIRAL-1.2146 IS DISTORTING EXCESSIVELY.
   ELEMENT SPIRAL-1.2148 IS DISTORTING EXCESSIVELY.
   ELEMENT SPIRAL-1.2150 IS DISTORTING EXCESSIVELY.
   ELEMENT SPIRAL-1.2151 IS DISTORTING EXCESSIVELY.
   ELEMENT SPIRAL-1.2152 IS DISTORTING EXCESSIVELY.
   ELEMENT SPIRAL-1.2157 IS DISTORTING EXCESSIVELY.
   ELEMENT SPIRAL-1.2158 IS DISTORTING EXCESSIVELY.
   ELEMENT SPIRAL-1.2159 IS DISTORTING EXCESSIVELY.
   ELEMENT SPIRAL-1.2160 IS DISTORTING EXCESSIVELY.
   ELEMENT SPIRAL-1.2164 IS DISTORTING EXCESSIVELY.
   ELEMENT SPIRAL-1.2166 IS DISTORTING EXCESSIVELY.
   ELEMENT SPIRAL-1.2168 IS DISTORTING EXCESSIVELY.
   ELEMENT SPIRAL-1.2172 IS DISTORTING EXCESSIVELY.
   ELEMENT SPIRAL-1.2173 IS DISTORTING EXCESSIVELY.
   ELEMENT SPIRAL-1.2176 IS DISTORTING EXCESSIVELY.
   ELEMENT SPIRAL-1.2177 IS DISTORTING EXCESSIVELY.
   ELEMENT SPIRAL-1.2178 IS DISTORTING EXCESSIVELY.
   ELEMENT SPIRAL-1.2179 IS DISTORTING EXCESSIVELY.
   ELEMENT SPIRAL-1.2180 IS DISTORTING EXCESSIVELY.
   ELEMENT SPIRAL-1.2181 IS DISTORTING EXCESSIVELY.
   ELEMENT SPIRAL-1.2182 IS DISTORTING EXCESSIVELY.
   ELEMENT SPIRAL-1.2183 IS DISTORTING EXCESSIVELY.
   ELEMENT SPIRAL-1.2184 IS DISTORTING EXCESSIVELY.
   ELEMENT SPIRAL-1.2186 IS DISTORTING EXCESSIVELY.
   ELEMENT SPIRAL-1.2188 IS DISTORTING EXCESSIVELY.
   ELEMENT SPIRAL-1.2189 IS DISTORTING EXCESSIVELY.
   ELEMENT SPIRAL-1.2193 IS DISTORTING EXCESSIVELY.
   ELEMENT SPIRAL-1.2194 IS DISTORTING EXCESSIVELY.
   ELEMENT SPIRAL-1.2195 IS DISTORTING EXCESSIVELY.
   ELEMENT SPIRAL-1.2197 IS DISTORTING EXCESSIVELY.
   ELEMENT SPIRAL-1.2199 IS DISTORTING EXCESSIVELY.
   ELEMENT SPIRAL-1.2202 IS DISTORTING EXCESSIVELY.
   ELEMENT SPIRAL-1.2206 IS DISTORTING EXCESSIVELY.
   ELEMENT SPIRAL-1.2207 IS DISTORTING EXCESSIVELY.
   ELEMENT SPIRAL-1.2209 IS DISTORTING EXCESSIVELY.
   ELEMENT SPIRAL-1.2210 IS DISTORTING EXCESSIVELY.
   ELEMENT SPIRAL-1.2212 IS DISTORTING EXCESSIVELY.
   ELEMENT SPIRAL-1.2213 IS DISTORTING EXCESSIVELY.
   ELEMENT SPIRAL-1.2225 IS DISTORTING EXCESSIVELY.
   ELEMENT SPIRAL-1.2226 IS DISTORTING EXCESSIVELY.
   ELEMENT SPIRAL-1.2227 IS DISTORTING EXCESSIVELY.
   ELEMENT SPIRAL-1.2228 IS DISTORTING EXCESSIVELY.
   ELEMENT SPIRAL-1.2231 IS DISTORTING EXCESSIVELY.
   ELEMENT SPIRAL-1.2232 IS DISTORTING EXCESSIVELY.
   ELEMENT SPIRAL-1.2233 IS DISTORTING EXCESSIVELY.
   ELEMENT SPIRAL-1.2235 IS DISTORTING EXCESSIVELY.
   ELEMENT SPIRAL-1.2238 IS DISTORTING EXCESSIVELY.
   ELEMENT SPIRAL-1.2239 IS DISTORTING EXCESSIVELY.
   ELEMENT SPIRAL-1.2247 IS DISTORTING EXCESSIVELY.
   ELEMENT SPIRAL-1.2248 IS DISTORTING EXCESSIVELY.
   ELEMENT SPIRAL-1.2249 IS DISTORTING EXCESSIVELY.
   ELEMENT SPIRAL-1.2253 IS DISTORTING EXCESSIVELY.
   ELEMENT SPIRAL-1.2254 IS DISTORTING EXCESSIVELY.
   ELEMENT SPIRAL-1.2255 IS DISTORTING EXCESSIVELY.
   ELEMENT SPIRAL-1.2256 IS DISTORTING EXCESSIVELY.
   ELEMENT SPIRAL-1.2257 IS DISTORTING EXCESSIVELY.
   ELEMENT SPIRAL-1.2259 IS DISTORTING EXCESSIVELY.
   ELEMENT SPIRAL-1.2262 IS DISTORTING EXCESSIVELY.
   ELEMENT SPIRAL-1.2263 IS DISTORTING EXCESSIVELY.
   ELEMENT SPIRAL-1.2264 IS DISTORTING EXCESSIVELY.
   ELEMENT SPIRAL-1.2269 IS DISTORTING EXCESSIVELY.
   ELEMENT SPIRAL-1.2270 IS DISTORTING EXCESSIVELY.
   ELEMENT SPIRAL-1.2271 IS DISTORTING EXCESSIVELY.
   ELEMENT SPIRAL-1.2273 IS DISTORTING EXCESSIVELY.
   ELEMENT SPIRAL-1.2275 IS DISTORTING EXCESSIVELY.
   ELEMENT SPIRAL-1.2276 IS DISTORTING EXCESSIVELY.
   ELEMENT SPIRAL-1.2278 IS DISTORTING EXCESSIVELY.
   ELEMENT SPIRAL-1.2279 IS DISTORTING EXCESSIVELY.
   ELEMENT SPIRAL-1.2280 IS DISTORTING EXCESSIVELY.
   ELEMENT SPIRAL-1.2281 IS DISTORTING EXCESSIVELY.
   ELEMENT SPIRAL-1.2284 IS DISTORTING EXCESSIVELY.
   ELEMENT SPIRAL-1.2285 IS DISTORTING EXCESSIVELY.
   ELEMENT SPIRAL-1.2286 IS DISTORTING EXCESSIVELY.
   ELEMENT SPIRAL-1.2288 IS DISTORTING EXCESSIVELY.
   ELEMENT SPIRAL-1.2290 IS DISTORTING EXCESSIVELY.
   ELEMENT SPIRAL-1.2291 IS DISTORTING EXCESSIVELY.
   ELEMENT SPIRAL-1.2293 IS DISTORTING EXCESSIVELY.
   ELEMENT SPIRAL-1.2294 IS DISTORTING EXCESSIVELY.
   ELEMENT SPIRAL-1.2296 IS DISTORTING EXCESSIVELY.
   ELEMENT SPIRAL-1.2297 IS DISTORTING EXCESSIVELY.
   ELEMENT SPIRAL-1.2299 IS DISTORTING EXCESSIVELY.
   ELEMENT SPIRAL-1.2301 IS DISTORTING EXCESSIVELY.
   ELEMENT SPIRAL-1.2302 IS DISTORTING EXCESSIVELY.
   ELEMENT SPIRAL-1.2313 IS DISTORTING EXCESSIVELY.
   ELEMENT SPIRAL-1.2323 IS DISTORTING EXCESSIVELY.
   ELEMENT SPIRAL-1.2325 IS DISTORTING EXCESSIVELY.
   ELEMENT SPIRAL-1.2326 IS DISTORTING EXCESSIVELY.
   ELEMENT SPIRAL-1.2327 IS DISTORTING EXCESSIVELY.
   ELEMENT SPIRAL-1.2329 IS DISTORTING EXCESSIVELY.
   ELEMENT SPIRAL-1.2331 IS DISTORTING EXCESSIVELY.
   ELEMENT SPIRAL-1.2332 IS DISTORTING EXCESSIVELY.
   ELEMENT SPIRAL-1.2333 IS DISTORTING EXCESSIVELY.
   ELEMENT SPIRAL-1.2334 IS DISTORTING EXCESSIVELY.
   ELEMENT SPIRAL-1.2335 IS DISTORTING EXCESSIVELY.
   ELEMENT SPIRAL-1.2337 IS DISTORTING EXCESSIVELY.
   ELEMENT SPIRAL-1.2338 IS DISTORTING EXCESSIVELY.
   ELEMENT SPIRAL-1.2340 IS DISTORTING EXCESSIVELY.
   ELEMENT SPIRAL-1.2342 IS DISTORTING EXCESSIVELY.
   ELEMENT SPIRAL-1.2343 IS DISTORTING EXCESSIVELY.
   ELEMENT SPIRAL-1.2344 IS DISTORTING EXCESSIVELY.
   ELEMENT SPIRAL-1.2345 IS DISTORTING EXCESSIVELY.
   ELEMENT SPIRAL-1.2348 IS DISTORTING EXCESSIVELY.
   ELEMENT SPIRAL-1.2349 IS DISTORTING EXCESSIVELY.
   ELEMENT SPIRAL-1.2350 IS DISTORTING EXCESSIVELY.
   ELEMENT SPIRAL-1.2351 IS DISTORTING EXCESSIVELY.
   ELEMENT SPIRAL-1.2352 IS DISTORTING EXCESSIVELY.
   ELEMENT SPIRAL-1.2359 IS DISTORTING EXCESSIVELY.
   ELEMENT SPIRAL-1.2360 IS DISTORTING EXCESSIVELY.
   ELEMENT SPIRAL-1.2362 IS DISTORTING EXCESSIVELY.
   ELEMENT SPIRAL-1.2363 IS DISTORTING EXCESSIVELY.
   ELEMENT SPIRAL-1.2368 IS DISTORTING EXCESSIVELY.
   ELEMENT SPIRAL-1.2372 IS DISTORTING EXCESSIVELY.
   ELEMENT SPIRAL-1.2373 IS DISTORTING EXCESSIVELY.
   ELEMENT SPIRAL-1.2378 IS DISTORTING EXCESSIVELY.
   ELEMENT SPIRAL-1.2381 IS DISTORTING EXCESSIVELY.
   ELEMENT SPIRAL-1.2383 IS DISTORTING EXCESSIVELY.
   ELEMENT SPIRAL-1.2387 IS DISTORTING EXCESSIVELY.
   ELEMENT SPIRAL-1.2388 IS DISTORTING EXCESSIVELY.
   ELEMENT SPIRAL-1.2389 IS DISTORTING EXCESSIVELY.
   ELEMENT SPIRAL-1.2391 IS DISTORTING EXCESSIVELY.
   ELEMENT SPIRAL-1.2394 IS DISTORTING EXCESSIVELY.
   ELEMENT SPIRAL-1.2395 IS DISTORTING EXCESSIVELY.
   ELEMENT SPIRAL-1.2396 IS DISTORTING EXCESSIVELY.
   ELEMENT SPIRAL-1.2397 IS DISTORTING EXCESSIVELY.
   ELEMENT SPIRAL-1.2400 IS DISTORTING EXCESSIVELY.
   ELEMENT SPIRAL-1.2401 IS DISTORTING EXCESSIVELY.
   ELEMENT SPIRAL-1.2402 IS DISTORTING EXCESSIVELY.
   ELEMENT SPIRAL-1.2404 IS DISTORTING EXCESSIVELY.
   ELEMENT SPIRAL-1.2405 IS DISTORTING EXCESSIVELY.
   ELEMENT SPIRAL-1.2406 IS DISTORTING EXCESSIVELY.
   ELEMENT SPIRAL-1.2409 IS DISTORTING EXCESSIVELY.
   ELEMENT SPIRAL-1.2411 IS DISTORTING EXCESSIVELY.
   ELEMENT SPIRAL-1.2413 IS DISTORTING EXCESSIVELY.
   ELEMENT SPIRAL-1.2414 IS DISTORTING EXCESSIVELY.
   ELEMENT SPIRAL-1.2415 IS DISTORTING EXCESSIVELY.
   ELEMENT SPIRAL-1.2416 IS DISTORTING EXCESSIVELY.
   ELEMENT SPIRAL-1.2418 IS DISTORTING EXCESSIVELY.
   ELEMENT SPIRAL-1.2420 IS DISTORTING EXCESSIVELY.
   ELEMENT SPIRAL-1.2423 IS DISTORTING EXCESSIVELY.
   ELEMENT SPIRAL-1.2424 IS DISTORTING EXCESSIVELY.
   ELEMENT SPIRAL-1.2425 IS DISTORTING EXCESSIVELY.
   ELEMENT SPIRAL-1.2426 IS DISTORTING EXCESSIVELY.
   ELEMENT SPIRAL-1.2428 IS DISTORTING EXCESSIVELY.
   ELEMENT SPIRAL-1.2431 IS DISTORTING EXCESSIVELY.
   ELEMENT SPIRAL-1.2432 IS DISTORTING EXCESSIVELY.
   ELEMENT SPIRAL-1.2433 IS DISTORTING EXCESSIVELY.
   ELEMENT SPIRAL-1.2434 IS DISTORTING EXCESSIVELY.
   ELEMENT SPIRAL-1.2435 IS DISTORTING EXCESSIVELY.
   ELEMENT SPIRAL-1.2436 IS DISTORTING EXCESSIVELY.
   ELEMENT SPIRAL-1.2440 IS DISTORTING EXCESSIVELY.
   ELEMENT SPIRAL-1.2443 IS DISTORTING EXCESSIVELY.
   ELEMENT SPIRAL-1.2446 IS DISTORTING EXCESSIVELY.
   ELEMENT SPIRAL-1.2449 IS DISTORTING EXCESSIVELY.
   ELEMENT SPIRAL-1.2450 IS DISTORTING EXCESSIVELY.
   ELEMENT SPIRAL-1.2451 IS DISTORTING EXCESSIVELY.
   ELEMENT SPIRAL-1.2452 IS DISTORTING EXCESSIVELY.
   ELEMENT SPIRAL-1.2453 IS DISTORTING EXCESSIVELY.
   ELEMENT SPIRAL-1.2454 IS DISTORTING EXCESSIVELY.
   ELEMENT SPIRAL-1.2455 IS DISTORTING EXCESSIVELY.
   ELEMENT SPIRAL-1.2456 IS DISTORTING EXCESSIVELY.
   ELEMENT SPIRAL-1.2459 IS DISTORTING EXCESSIVELY.
   ELEMENT SPIRAL-1.2461 IS DISTORTING EXCESSIVELY.
   ELEMENT SPIRAL-1.2462 IS DISTORTING EXCESSIVELY.
   ELEMENT SPIRAL-1.2463 IS DISTORTING EXCESSIVELY.
   ELEMENT SPIRAL-1.2465 IS DISTORTING EXCESSIVELY.
   ELEMENT SPIRAL-1.2466 IS DISTORTING EXCESSIVELY.
   ELEMENT SPIRAL-1.2467 IS DISTORTING EXCESSIVELY.
   ELEMENT SPIRAL-1.2472 IS DISTORTING EXCESSIVELY.
   ELEMENT SPIRAL-1.2475 IS DISTORTING EXCESSIVELY.
   ELEMENT SPIRAL-1.2479 IS DISTORTING EXCESSIVELY.
   ELEMENT SPIRAL-1.2483 IS DISTORTING EXCESSIVELY.
   ELEMENT SPIRAL-1.2484 IS DISTORTING EXCESSIVELY.
   ELEMENT SPIRAL-1.2485 IS DISTORTING EXCESSIVELY.
   ELEMENT SPIRAL-1.2488 IS DISTORTING EXCESSIVELY.
   ELEMENT SPIRAL-1.2489 IS DISTORTING EXCESSIVELY.
   ELEMENT SPIRAL-1.2490 IS DISTORTING EXCESSIVELY.
   ELEMENT SPIRAL-1.2494 IS DISTORTING EXCESSIVELY.
   ELEMENT SPIRAL-1.2497 IS DISTORTING EXCESSIVELY.
   ELEMENT SPIRAL-1.2499 IS DISTORTING EXCESSIVELY.
   ELEMENT SPIRAL-1.2500 IS DISTORTING EXCESSIVELY.
   ELEMENT SPIRAL-1.2501 IS DISTORTING EXCESSIVELY.
   ELEMENT SPIRAL-1.2502 IS DISTORTING EXCESSIVELY.
   ELEMENT SPIRAL-1.2503 IS DISTORTING EXCESSIVELY.
   ELEMENT SPIRAL-1.2506 IS DISTORTING EXCESSIVELY.
   ELEMENT SPIRAL-1.2507 IS DISTORTING EXCESSIVELY.
   ELEMENT SPIRAL-1.2509 IS DISTORTING EXCESSIVELY.
   ELEMENT SPIRAL-1.2512 IS DISTORTING EXCESSIVELY.
   ELEMENT SPIRAL-1.2513 IS DISTORTING EXCESSIVELY.
   ELEMENT SPIRAL-1.2515 IS DISTORTING EXCESSIVELY.
   ELEMENT SPIRAL-1.2516 IS DISTORTING EXCESSIVELY.
   ELEMENT SPIRAL-1.2519 IS DISTORTING EXCESSIVELY.
   ELEMENT SPIRAL-1.2521 IS DISTORTING EXCESSIVELY.
   ELEMENT SPIRAL-1.2522 IS DISTORTING EXCESSIVELY.
   ELEMENT SPIRAL-1.2523 IS DISTORTING EXCESSIVELY.
   ELEMENT SPIRAL-1.2526 IS DISTORTING EXCESSIVELY.
   ELEMENT SPIRAL-1.2527 IS DISTORTING EXCESSIVELY.
   ELEMENT SPIRAL-1.2529 IS DISTORTING EXCESSIVELY.
   ELEMENT SPIRAL-1.2530 IS DISTORTING EXCESSIVELY.
   ELEMENT SPIRAL-1.2532 IS DISTORTING EXCESSIVELY.
   ELEMENT SPIRAL-1.2533 IS DISTORTING EXCESSIVELY.
   ELEMENT SPIRAL-1.2536 IS DISTORTING EXCESSIVELY.
   ELEMENT SPIRAL-1.2540 IS DISTORTING EXCESSIVELY.
   ELEMENT SPIRAL-1.2543 IS DISTORTING EXCESSIVELY.
   ELEMENT SPIRAL-1.2544 IS DISTORTING EXCESSIVELY.
   ELEMENT SPIRAL-1.2548 IS DISTORTING EXCESSIVELY.
   ELEMENT SPIRAL-1.2549 IS DISTORTING EXCESSIVELY.
   ELEMENT SPIRAL-1.2551 IS DISTORTING EXCESSIVELY.
   ELEMENT SPIRAL-1.2552 IS DISTORTING EXCESSIVELY.
   ELEMENT SPIRAL-1.2558 IS DISTORTING EXCESSIVELY.
   ELEMENT SPIRAL-1.2561 IS DISTORTING EXCESSIVELY.
   ELEMENT SPIRAL-1.2564 IS DISTORTING EXCESSIVELY.
   ELEMENT SPIRAL-1.2565 IS DISTORTING EXCESSIVELY.
   ELEMENT SPIRAL-1.2566 IS DISTORTING EXCESSIVELY.
   ELEMENT SPIRAL-1.2567 IS DISTORTING EXCESSIVELY.
   ELEMENT SPIRAL-1.2569 IS DISTORTING EXCESSIVELY.
   ELEMENT SPIRAL-1.2570 IS DISTORTING EXCESSIVELY.
   ELEMENT SPIRAL-1.2571 IS DISTORTING EXCESSIVELY.
   ELEMENT SPIRAL-1.2574 IS DISTORTING EXCESSIVELY.
   ELEMENT SPIRAL-1.2577 IS DISTORTING EXCESSIVELY.
   ELEMENT SPIRAL-1.2578 IS DISTORTING EXCESSIVELY.
   ELEMENT SPIRAL-1.2582 IS DISTORTING EXCESSIVELY.
   ELEMENT SPIRAL-1.2583 IS DISTORTING EXCESSIVELY.
   ELEMENT SPIRAL-1.2586 IS DISTORTING EXCESSIVELY.
   ELEMENT SPIRAL-1.2592 IS DISTORTING EXCESSIVELY.
   ELEMENT SPIRAL-1.2594 IS DISTORTING EXCESSIVELY.
   ELEMENT SPIRAL-1.2596 IS DISTORTING EXCESSIVELY.
   ELEMENT SPIRAL-1.2597 IS DISTORTING EXCESSIVELY.
   ELEMENT SPIRAL-1.2598 IS DISTORTING EXCESSIVELY.
   ELEMENT SPIRAL-1.2601 IS DISTORTING EXCESSIVELY.
   ELEMENT SPIRAL-1.2602 IS DISTORTING EXCESSIVELY.
   ELEMENT SPIRAL-1.2603 IS DISTORTING EXCESSIVELY.
   ELEMENT SPIRAL-1.2604 IS DISTORTING EXCESSIVELY.
   ELEMENT SPIRAL-1.2605 IS DISTORTING EXCESSIVELY.
   ELEMENT SPIRAL-1.2607 IS DISTORTING EXCESSIVELY.
   ELEMENT SPIRAL-1.2608 IS DISTORTING EXCESSIVELY.
   ELEMENT SPIRAL-1.2609 IS DISTORTING EXCESSIVELY.
   ELEMENT SPIRAL-1.2610 IS DISTORTING EXCESSIVELY.
   ELEMENT SPIRAL-1.2612 IS DISTORTING EXCESSIVELY.
   ELEMENT SPIRAL-1.2620 IS DISTORTING EXCESSIVELY.
   ELEMENT SPIRAL-1.2622 IS DISTORTING EXCESSIVELY.
   ELEMENT SPIRAL-1.2624 IS DISTORTING EXCESSIVELY.
   ELEMENT SPIRAL-1.2627 IS DISTORTING EXCESSIVELY.
   ELEMENT SPIRAL-1.2629 IS DISTORTING EXCESSIVELY.
   ELEMENT SPIRAL-1.2630 IS DISTORTING EXCESSIVELY.
   ELEMENT SPIRAL-1.2631 IS DISTORTING EXCESSIVELY.
   ELEMENT SPIRAL-1.2634 IS DISTORTING EXCESSIVELY.
   ELEMENT SPIRAL-1.2635 IS DISTORTING EXCESSIVELY.
   ELEMENT SPIRAL-1.2638 IS DISTORTING EXCESSIVELY.
   ELEMENT SPIRAL-1.2639 IS DISTORTING EXCESSIVELY.
   ELEMENT SPIRAL-1.2642 IS DISTORTING EXCESSIVELY.
   ELEMENT SPIRAL-1.2643 IS DISTORTING EXCESSIVELY.
   ELEMENT SPIRAL-1.2644 IS DISTORTING EXCESSIVELY.
   ELEMENT SPIRAL-1.2645 IS DISTORTING EXCESSIVELY.
   ELEMENT SPIRAL-1.2647 IS DISTORTING EXCESSIVELY.
   ELEMENT SPIRAL-1.2648 IS DISTORTING EXCESSIVELY.
   ELEMENT SPIRAL-1.2650 IS DISTORTING EXCESSIVELY.
   ELEMENT SPIRAL-1.2658 IS DISTORTING EXCESSIVELY.
   ELEMENT SPIRAL-1.2659 IS DISTORTING EXCESSIVELY.
   ELEMENT SPIRAL-1.2661 IS DISTORTING EXCESSIVELY.
   ELEMENT SPIRAL-1.2663 IS DISTORTING EXCESSIVELY.
   ELEMENT SPIRAL-1.2665 IS DISTORTING EXCESSIVELY.
   ELEMENT SPIRAL-1.2668 IS DISTORTING EXCESSIVELY.
   ELEMENT SPIRAL-1.2669 IS DISTORTING EXCESSIVELY.
   ELEMENT SPIRAL-1.2670 IS DISTORTING EXCESSIVELY.
   ELEMENT SPIRAL-1.2671 IS DISTORTING EXCESSIVELY.
   ELEMENT SPIRAL-1.2672 IS DISTORTING EXCESSIVELY.
   ELEMENT SPIRAL-1.2673 IS DISTORTING EXCESSIVELY.
   ELEMENT SPIRAL-1.2678 IS DISTORTING EXCESSIVELY.
   ELEMENT SPIRAL-1.2679 IS DISTORTING EXCESSIVELY.
   ELEMENT SPIRAL-1.2681 IS DISTORTING EXCESSIVELY.
   ELEMENT SPIRAL-1.2683 IS DISTORTING EXCESSIVELY.
   ELEMENT SPIRAL-1.2684 IS DISTORTING EXCESSIVELY.
   ELEMENT SPIRAL-1.2685 IS DISTORTING EXCESSIVELY.
   ELEMENT SPIRAL-1.2687 IS DISTORTING EXCESSIVELY.
   ELEMENT SPIRAL-1.2688 IS DISTORTING EXCESSIVELY.
   ELEMENT SPIRAL-1.2690 IS DISTORTING EXCESSIVELY.
   ELEMENT SPIRAL-1.2691 IS DISTORTING EXCESSIVELY.
   ELEMENT SPIRAL-1.2694 IS DISTORTING EXCESSIVELY.
   ELEMENT SPIRAL-1.2697 IS DISTORTING EXCESSIVELY.
   ELEMENT SPIRAL-1.2699 IS DISTORTING EXCESSIVELY.
   ELEMENT SPIRAL-1.2700 IS DISTORTING EXCESSIVELY.
   ELEMENT SPIRAL-1.2701 IS DISTORTING EXCESSIVELY.
   ELEMENT SPIRAL-1.2702 IS DISTORTING EXCESSIVELY.
   ELEMENT SPIRAL-1.2703 IS DISTORTING EXCESSIVELY.
   ELEMENT SPIRAL-1.2705 IS DISTORTING EXCESSIVELY.
   ELEMENT SPIRAL-1.2706 IS DISTORTING EXCESSIVELY.
   ELEMENT SPIRAL-1.2708 IS DISTORTING EXCESSIVELY.
   ELEMENT SPIRAL-1.2710 IS DISTORTING EXCESSIVELY.
   ELEMENT SPIRAL-1.2714 IS DISTORTING EXCESSIVELY.
   ELEMENT SPIRAL-1.2715 IS DISTORTING EXCESSIVELY.
   ELEMENT SPIRAL-1.2716 IS DISTORTING EXCESSIVELY.
   ELEMENT SPIRAL-1.2718 IS DISTORTING EXCESSIVELY.
   ELEMENT SPIRAL-1.2720 IS DISTORTING EXCESSIVELY.
   ELEMENT SPIRAL-1.2721 IS DISTORTING EXCESSIVELY.
   ELEMENT SPIRAL-1.2727 IS DISTORTING EXCESSIVELY.
   ELEMENT SPIRAL-1.2730 IS DISTORTING EXCESSIVELY.
   ELEMENT SPIRAL-1.2731 IS DISTORTING EXCESSIVELY.
   ELEMENT SPIRAL-1.2735 IS DISTORTING EXCESSIVELY.
   ELEMENT SPIRAL-1.2736 IS DISTORTING EXCESSIVELY.
   ELEMENT SPIRAL-1.2741 IS DISTORTING EXCESSIVELY.
   ELEMENT SPIRAL-1.2742 IS DISTORTING EXCESSIVELY.
   ELEMENT SPIRAL-1.2743 IS DISTORTING EXCESSIVELY.
   ELEMENT SPIRAL-1.2744 IS DISTORTING EXCESSIVELY.
   ELEMENT SPIRAL-1.2745 IS DISTORTING EXCESSIVELY.
   ELEMENT SPIRAL-1.2747 IS DISTORTING EXCESSIVELY.
   ELEMENT SPIRAL-1.2748 IS DISTORTING EXCESSIVELY.
   ELEMENT SPIRAL-1.2751 IS DISTORTING EXCESSIVELY.
   ELEMENT SPIRAL-1.2753 IS DISTORTING EXCESSIVELY.
   ELEMENT SPIRAL-1.2755 IS DISTORTING EXCESSIVELY.
   ELEMENT SPIRAL-1.2757 IS DISTORTING EXCESSIVELY.
   ELEMENT SPIRAL-1.2758 IS DISTORTING EXCESSIVELY.
   ELEMENT SPIRAL-1.2759 IS DISTORTING EXCESSIVELY.
   ELEMENT SPIRAL-1.2761 IS DISTORTING EXCESSIVELY.
   ELEMENT SPIRAL-1.2763 IS DISTORTING EXCESSIVELY.
   ELEMENT SPIRAL-1.2764 IS DISTORTING EXCESSIVELY.
   ELEMENT SPIRAL-1.2765 IS DISTORTING EXCESSIVELY.
   ELEMENT SPIRAL-1.2766 IS DISTORTING EXCESSIVELY.
   ELEMENT SPIRAL-1.2767 IS DISTORTING EXCESSIVELY.
   ELEMENT SPIRAL-1.2768 IS DISTORTING EXCESSIVELY.
   ELEMENT SPIRAL-1.2769 IS DISTORTING EXCESSIVELY.
   ELEMENT SPIRAL-1.2771 IS DISTORTING EXCESSIVELY.
   ELEMENT SPIRAL-1.2775 IS DISTORTING EXCESSIVELY.
   ELEMENT SPIRAL-1.2778 IS DISTORTING EXCESSIVELY.
   ELEMENT SPIRAL-1.2780 IS DISTORTING EXCESSIVELY.
   ELEMENT SPIRAL-1.2781 IS DISTORTING EXCESSIVELY.
   ELEMENT SPIRAL-1.2786 IS DISTORTING EXCESSIVELY.
   ELEMENT SPIRAL-1.2789 IS DISTORTING EXCESSIVELY.
   ELEMENT SPIRAL-1.2791 IS DISTORTING EXCESSIVELY.
   ELEMENT SPIRAL-1.2792 IS DISTORTING EXCESSIVELY.
   ELEMENT SPIRAL-1.2793 IS DISTORTING EXCESSIVELY.
   ELEMENT SPIRAL-1.2794 IS DISTORTING EXCESSIVELY.
   ELEMENT SPIRAL-1.2795 IS DISTORTING EXCESSIVELY.
   ELEMENT SPIRAL-1.2797 IS DISTORTING EXCESSIVELY.
   ELEMENT SPIRAL-1.2799 IS DISTORTING EXCESSIVELY.
   ELEMENT SPIRAL-1.2800 IS DISTORTING EXCESSIVELY.
   ELEMENT SPIRAL-1.2802 IS DISTORTING EXCESSIVELY.
   ELEMENT SPIRAL-1.2804 IS DISTORTING EXCESSIVELY.
   ELEMENT SPIRAL-1.2807 IS DISTORTING EXCESSIVELY.
   ELEMENT SPIRAL-1.2808 IS DISTORTING EXCESSIVELY.
   ELEMENT SPIRAL-1.2809 IS DISTORTING EXCESSIVELY.
   ELEMENT SPIRAL-1.2813 IS DISTORTING EXCESSIVELY.
   ELEMENT SPIRAL-1.2815 IS DISTORTING EXCESSIVELY.
[...]

 ITERATION SUMMARY FOR THE INCREMENT:   3 TOTAL ITERATIONS, OF WHICH
   0 ARE SEVERE DISCONTINUITY ITERATIONS AND  3 ARE EQUILIBRIUM ITERATIONS.

 TIME INCREMENT COMPLETED  3.168E-02,  FRACTION OF STEP COMPLETED  0.580    
 STEP TIME COMPLETED       0.580    ,  TOTAL TIME COMPLETED        0.580    


  INCREMENT    33 STARTS. ATTEMPT NUMBER  1, TIME INCREMENT  4.751E-02
 
	SYMMETRIC PURE THREAD-BASED DIRECT SPARSE SOLVER RUNNING ON
 	1 HOST x 1 MPI RANK PER HOST x 1 THREAD PER RANK
        NUMBER OF EQUATIONS:  90774
        NUMBER OF RHS:        1
        NUMBER OF FLOPS:      6.037e+09
        SOLVER ELAPSED TIME:  244ms

               CONVERGENCE CHECKS FOR EQUILIBRIUM ITERATION     1


 AVERAGE FORCE                      2.869E-03   TIME AVG. FORCE       1.256E-03
 LARGEST SCALED RESIDUAL FORCE      7.211E-03   AT NODE      11029   DOF  1
   INSTANCE: SPIRAL-1                                                                        
  CORRESPONDING RESIDUAL FORCE      7.211E-03
 LARGEST INCREMENT OF DISP.        -7.151E-04   AT NODE        248   DOF  1
   INSTANCE: SPIRAL-1                                                                        
 LARGEST CORRECTION TO DISP.        4.691E-05   AT NODE        248   DOF  1
   INSTANCE: SPIRAL-1                                                                        
          FORCE     EQUILIBRIUM NOT ACHIEVED WITHIN TOLERANCE.
 
	SYMMETRIC PURE THREAD-BASED DIRECT SPARSE SOLVER RUNNING ON
 	1 HOST x 1 MPI RANK PER HOST x 1 THREAD PER RANK
        NUMBER OF EQUATIONS:  90774
        NUMBER OF RHS:        1
        NUMBER OF FLOPS:      6.037e+09
        SOLVER ELAPSED TIME:  234ms

               CONVERGENCE CHECKS FOR EQUILIBRIUM ITERATION     2


 AVERAGE FORCE                      2.793E-03   TIME AVG. FORCE       1.254E-03
 LARGEST SCALED RESIDUAL FORCE      4.864E-06   AT NODE       8665   DOF  2
   INSTANCE: SPIRAL-1                                                                        
  CORRESPONDING RESIDUAL FORCE      4.864E-06
 LARGEST INCREMENT OF DISP.        -7.150E-04   AT NODE        248   DOF  1
   INSTANCE: SPIRAL-1                                                                        
 LARGEST CORRECTION TO DISP.        6.366E-08   AT NODE        301   DOF  3
   INSTANCE: SPIRAL-1                                                                        
          THE FORCE     EQUILIBRIUM EQUATIONS HAVE CONVERGED
          TIME INCREMENT MAY NOW INCREASE TO    7.127E-02

 ITERATION SUMMARY FOR THE INCREMENT:   2 TOTAL ITERATIONS, OF WHICH
   0 ARE SEVERE DISCONTINUITY ITERATIONS AND  2 ARE EQUILIBRIUM ITERATIONS.

 TIME INCREMENT COMPLETED  4.751E-02,  FRACTION OF STEP COMPLETED  0.628    
 STEP TIME COMPLETED       0.628    ,  TOTAL TIME COMPLETED        0.628    


  INCREMENT    34 STARTS. ATTEMPT NUMBER  1, TIME INCREMENT  7.127E-02
 
	SYMMETRIC PURE THREAD-BASED DIRECT SPARSE SOLVER RUNNING ON
 	1 HOST x 1 MPI RANK PER HOST x 1 THREAD PER RANK
        NUMBER OF EQUATIONS:  90774
        NUMBER OF RHS:        1
        NUMBER OF FLOPS:      6.037e+09
        SOLVER ELAPSED TIME:  240ms

               CONVERGENCE CHECKS FOR EQUILIBRIUM ITERATION     1


 AVERAGE FORCE                      4.664E-03   TIME AVG. FORCE       1.354E-03
 LARGEST SCALED RESIDUAL FORCE      6.960E-02   AT NODE      11029   DOF  1
   INSTANCE: SPIRAL-1                                                                        
  CORRESPONDING RESIDUAL FORCE      6.960E-02
 LARGEST INCREMENT OF DISP.        -9.258E-04   AT NODE        248   DOF  1
   INSTANCE: SPIRAL-1                                                                        
 LARGEST CORRECTION TO DISP.        1.467E-04   AT NODE        248   DOF  1
   INSTANCE: SPIRAL-1                                                                        
          FORCE     EQUILIBRIUM NOT ACHIEVED WITHIN TOLERANCE.
 
	SYMMETRIC PURE THREAD-BASED DIRECT SPARSE SOLVER RUNNING ON
 	1 HOST x 1 MPI RANK PER HOST x 1 THREAD PER RANK
        NUMBER OF EQUATIONS:  90774
        NUMBER OF RHS:        1
        NUMBER OF FLOPS:      6.037e+09
        SOLVER ELAPSED TIME:  235ms

               CONVERGENCE CHECKS FOR EQUILIBRIUM ITERATION     2


 AVERAGE FORCE                      2.861E-03   TIME AVG. FORCE       1.301E-03
 LARGEST SCALED RESIDUAL FORCE      3.784E-05   AT NODE       8665   DOF  2
   INSTANCE: SPIRAL-1                                                                        
  CORRESPONDING RESIDUAL FORCE      3.784E-05
 LARGEST INCREMENT OF DISP.        -9.259E-04   AT NODE        248   DOF  1
   INSTANCE: SPIRAL-1                                                                        
 LARGEST CORRECTION TO DISP.        2.349E-07   AT NODE        248   DOF  3
   INSTANCE: SPIRAL-1                                                                        
          FORCE     EQUILIBRIUM NOT ACHIEVED WITHIN TOLERANCE.
 
	SYMMETRIC PURE THREAD-BASED DIRECT SPARSE SOLVER RUNNING ON
 	1 HOST x 1 MPI RANK PER HOST x 1 THREAD PER RANK
        NUMBER OF EQUATIONS:  90774
        NUMBER OF RHS:        1
        NUMBER OF FLOPS:      6.037e+09
        SOLVER ELAPSED TIME:  233ms

               CONVERGENCE CHECKS FOR EQUILIBRIUM ITERATION     3


 AVERAGE FORCE                      2.862E-03   TIME AVG. FORCE       1.301E-03
 LARGEST SCALED RESIDUAL FORCE      1.124E-04   AT NODE      11029   DOF  1
   INSTANCE: SPIRAL-1                                                                        
  CORRESPONDING RESIDUAL FORCE      1.124E-04
 LARGEST INCREMENT OF DISP.        -9.319E-04   AT NODE        248   DOF  1
   INSTANCE: SPIRAL-1                                                                        
 LARGEST CORRECTION TO DISP.       -6.017E-06   AT NODE        248   DOF  1
   INSTANCE: SPIRAL-1                                                                        
          FORCE     EQUILIBRIUM NOT ACHIEVED WITHIN TOLERANCE.
 
	SYMMETRIC PURE THREAD-BASED DIRECT SPARSE SOLVER RUNNING ON
 	1 HOST x 1 MPI RANK PER HOST x 1 THREAD PER RANK
        NUMBER OF EQUATIONS:  90774
        NUMBER OF RHS:        1
        NUMBER OF FLOPS:      6.037e+09
        SOLVER ELAPSED TIME:  241ms

               CONVERGENCE CHECKS FOR EQUILIBRIUM ITERATION     4


 AVERAGE FORCE                      2.862E-03   TIME AVG. FORCE       1.301E-03
 LARGEST SCALED RESIDUAL FORCE      5.990E-08   AT NODE        240   DOF  1
   INSTANCE: SPIRAL-1                                                                        
  CORRESPONDING RESIDUAL FORCE      5.990E-08
 LARGEST INCREMENT OF DISP.        -9.318E-04   AT NODE        248   DOF  1
   INSTANCE: SPIRAL-1                                                                        
 LARGEST CORRECTION TO DISP.        6.738E-08   AT NODE        248   DOF  1
   INSTANCE: SPIRAL-1                                                                        
          THE FORCE     EQUILIBRIUM EQUATIONS HAVE CONVERGED
          TIME INCREMENT MAY NOW INCREASE TO    0.107    

 ITERATION SUMMARY FOR THE INCREMENT:   4 TOTAL ITERATIONS, OF WHICH
   0 ARE SEVERE DISCONTINUITY ITERATIONS AND  4 ARE EQUILIBRIUM ITERATIONS.

 TIME INCREMENT COMPLETED  7.127E-02,  FRACTION OF STEP COMPLETED  0.699    
 STEP TIME COMPLETED       0.699    ,  TOTAL TIME COMPLETED        0.699    


  INCREMENT    35 STARTS. ATTEMPT NUMBER  1, TIME INCREMENT  0.107    
 
	SYMMETRIC PURE THREAD-BASED DIRECT SPARSE SOLVER RUNNING ON
 	1 HOST x 1 MPI RANK PER HOST x 1 THREAD PER RANK
        NUMBER OF EQUATIONS:  90774
        NUMBER OF RHS:        1
        NUMBER OF FLOPS:      6.037e+09
        SOLVER ELAPSED TIME:  234ms

               CONVERGENCE CHECKS FOR EQUILIBRIUM ITERATION     1


 AVERAGE FORCE                      9.745E-03   TIME AVG. FORCE       1.542E-03
 LARGEST SCALED RESIDUAL FORCE      0.212       AT NODE      11029   DOF  1
   INSTANCE: SPIRAL-1                                                                        
  CORRESPONDING RESIDUAL FORCE      0.212    
 LARGEST INCREMENT OF DISP.        -1.140E-03   AT NODE        248   DOF  1
   INSTANCE: SPIRAL-1                                                                        
 LARGEST CORRECTION TO DISP.        2.576E-04   AT NODE        248   DOF  1
   INSTANCE: SPIRAL-1                                                                        
          FORCE     EQUILIBRIUM NOT ACHIEVED WITHIN TOLERANCE.
 
	SYMMETRIC PURE THREAD-BASED DIRECT SPARSE SOLVER RUNNING ON
 	1 HOST x 1 MPI RANK PER HOST x 1 THREAD PER RANK
        NUMBER OF EQUATIONS:  90774
        NUMBER OF RHS:        1
        NUMBER OF FLOPS:      6.037e+09
        SOLVER ELAPSED TIME:  235ms

               CONVERGENCE CHECKS FOR EQUILIBRIUM ITERATION     2


 AVERAGE FORCE                      2.949E-03   TIME AVG. FORCE       1.348E-03
 LARGEST SCALED RESIDUAL FORCE      1.362E-04   AT NODE       8665   DOF  2
   INSTANCE: SPIRAL-1                                                                        
  CORRESPONDING RESIDUAL FORCE      1.362E-04
 LARGEST INCREMENT OF DISP.        -1.140E-03   AT NODE        248   DOF  1
   INSTANCE: SPIRAL-1                                                                        
 LARGEST CORRECTION TO DISP.        7.355E-07   AT NODE        248   DOF  3
   INSTANCE: SPIRAL-1                                                                        
          FORCE     EQUILIBRIUM NOT ACHIEVED WITHIN TOLERANCE.
 
	SYMMETRIC PURE THREAD-BASED DIRECT SPARSE SOLVER RUNNING ON
 	1 HOST x 1 MPI RANK PER HOST x 1 THREAD PER RANK
        NUMBER OF EQUATIONS:  90774
        NUMBER OF RHS:        1
        NUMBER OF FLOPS:      6.037e+09
        SOLVER ELAPSED TIME:  242ms

               CONVERGENCE CHECKS FOR EQUILIBRIUM ITERATION     3


 AVERAGE FORCE                      2.954E-03   TIME AVG. FORCE       1.348E-03
 LARGEST SCALED RESIDUAL FORCE      1.152E-03   AT NODE      11029   DOF  1
   INSTANCE: SPIRAL-1                                                                        
  CORRESPONDING RESIDUAL FORCE      1.152E-03
 LARGEST INCREMENT OF DISP.        -1.160E-03   AT NODE        248   DOF  1
   INSTANCE: SPIRAL-1                                                                        
 LARGEST CORRECTION TO DISP.       -1.931E-05   AT NODE        248   DOF  1
   INSTANCE: SPIRAL-1                                                                        
          FORCE     EQUILIBRIUM NOT ACHIEVED WITHIN TOLERANCE.
 
	SYMMETRIC PURE THREAD-BASED DIRECT SPARSE SOLVER RUNNING ON
 	1 HOST x 1 MPI RANK PER HOST x 1 THREAD PER RANK
        NUMBER OF EQUATIONS:  90774
        NUMBER OF RHS:        1
        NUMBER OF FLOPS:      6.037e+09
        SOLVER ELAPSED TIME:  241ms

               CONVERGENCE CHECKS FOR EQUILIBRIUM ITERATION     4


 AVERAGE FORCE                      2.951E-03   TIME AVG. FORCE       1.348E-03
 LARGEST SCALED RESIDUAL FORCE      3.543E-07   AT NODE        235   DOF  3
   INSTANCE: SPIRAL-1                                                                        
  CORRESPONDING RESIDUAL FORCE      3.543E-07
 LARGEST INCREMENT OF DISP.        -1.159E-03   AT NODE        248   DOF  1
   INSTANCE: SPIRAL-1                                                                        
 LARGEST CORRECTION TO DISP.        3.727E-07   AT NODE        248   DOF  1
   INSTANCE: SPIRAL-1                                                                        
          THE FORCE     EQUILIBRIUM EQUATIONS HAVE CONVERGED
          TIME INCREMENT MAY NOW INCREASE TO    0.160    

 ITERATION SUMMARY FOR THE INCREMENT:   4 TOTAL ITERATIONS, OF WHICH
   0 ARE SEVERE DISCONTINUITY ITERATIONS AND  4 ARE EQUILIBRIUM ITERATIONS.

 TIME INCREMENT COMPLETED  0.107    ,  FRACTION OF STEP COMPLETED  0.806    
 STEP TIME COMPLETED       0.806    ,  TOTAL TIME COMPLETED        0.806    


  INCREMENT    36 STARTS. ATTEMPT NUMBER  1, TIME INCREMENT  0.160    
 
	SYMMETRIC PURE THREAD-BASED DIRECT SPARSE SOLVER RUNNING ON
 	1 HOST x 1 MPI RANK PER HOST x 1 THREAD PER RANK
        NUMBER OF EQUATIONS:  90774
        NUMBER OF RHS:        1
        NUMBER OF FLOPS:      6.037e+09
        SOLVER ELAPSED TIME:  280ms

               CONVERGENCE CHECKS FOR EQUILIBRIUM ITERATION     1


 AVERAGE FORCE                      2.395E-02   TIME AVG. FORCE       1.976E-03
 LARGEST SCALED RESIDUAL FORCE      0.589       AT NODE      11029   DOF  1
   INSTANCE: SPIRAL-1                                                                        
  CORRESPONDING RESIDUAL FORCE      0.589    
 LARGEST INCREMENT OF DISP.        -1.306E-03   AT NODE        248   DOF  1
   INSTANCE: SPIRAL-1                                                                        
 LARGEST CORRECTION TO DISP.        4.329E-04   AT NODE        248   DOF  1
   INSTANCE: SPIRAL-1                                                                        
          FORCE     EQUILIBRIUM NOT ACHIEVED WITHIN TOLERANCE.
 
	SYMMETRIC PURE THREAD-BASED DIRECT SPARSE SOLVER RUNNING ON
 	1 HOST x 1 MPI RANK PER HOST x 1 THREAD PER RANK
        NUMBER OF EQUATIONS:  90774
        NUMBER OF RHS:        1
        NUMBER OF FLOPS:      6.037e+09
        SOLVER ELAPSED TIME:  248ms

               CONVERGENCE CHECKS FOR EQUILIBRIUM ITERATION     2


 AVERAGE FORCE                      3.089E-03   TIME AVG. FORCE       1.396E-03
 LARGEST SCALED RESIDUAL FORCE      3.926E-04   AT NODE       8665   DOF  2
   INSTANCE: SPIRAL-1                                                                        
  CORRESPONDING RESIDUAL FORCE      3.926E-04
 LARGEST INCREMENT OF DISP.        -1.306E-03   AT NODE        248   DOF  1
   INSTANCE: SPIRAL-1                                                                        
 LARGEST CORRECTION TO DISP.        2.064E-06   AT NODE        248   DOF  3
   INSTANCE: SPIRAL-1                                                                        
          FORCE     EQUILIBRIUM NOT ACHIEVED WITHIN TOLERANCE.
 
	SYMMETRIC PURE THREAD-BASED DIRECT SPARSE SOLVER RUNNING ON
 	1 HOST x 1 MPI RANK PER HOST x 1 THREAD PER RANK
        NUMBER OF EQUATIONS:  90774
        NUMBER OF RHS:        1
        NUMBER OF FLOPS:      6.037e+09
        SOLVER ELAPSED TIME:  247ms

               CONVERGENCE CHECKS FOR EQUILIBRIUM ITERATION     3


 AVERAGE FORCE                      3.221E-03   TIME AVG. FORCE       1.400E-03
 LARGEST SCALED RESIDUAL FORCE      1.068E-02   AT NODE      11029   DOF  1
   INSTANCE: SPIRAL-1                                                                        
  CORRESPONDING RESIDUAL FORCE      1.068E-02
 LARGEST INCREMENT OF DISP.        -1.365E-03   AT NODE        248   DOF  1
   INSTANCE: SPIRAL-1                                                                        
 LARGEST CORRECTION TO DISP.       -5.895E-05   AT NODE        248   DOF  1
   INSTANCE: SPIRAL-1                                                                        
          FORCE     EQUILIBRIUM NOT ACHIEVED WITHIN TOLERANCE.
 
	SYMMETRIC PURE THREAD-BASED DIRECT SPARSE SOLVER RUNNING ON
 	1 HOST x 1 MPI RANK PER HOST x 1 THREAD PER RANK
        NUMBER OF EQUATIONS:  90774
        NUMBER OF RHS:        1
        NUMBER OF FLOPS:      6.037e+09
        SOLVER ELAPSED TIME:  238ms

               CONVERGENCE CHECKS FOR EQUILIBRIUM ITERATION     4


 AVERAGE FORCE                      3.095E-03   TIME AVG. FORCE       1.397E-03
 LARGEST SCALED RESIDUAL FORCE     -1.847E-06   AT NODE      17271   DOF  1
   INSTANCE: SPIRAL-1                                                                        
  CORRESPONDING RESIDUAL FORCE     -1.847E-06
 LARGEST INCREMENT OF DISP.        -1.364E-03   AT NODE        248   DOF  1
   INSTANCE: SPIRAL-1                                                                        
 LARGEST CORRECTION TO DISP.        6.968E-07   AT NODE        248   DOF  1
   INSTANCE: SPIRAL-1                                                                        
          THE FORCE     EQUILIBRIUM EQUATIONS HAVE CONVERGED

 ITERATION SUMMARY FOR THE INCREMENT:   4 TOTAL ITERATIONS, OF WHICH
   0 ARE SEVERE DISCONTINUITY ITERATIONS AND  4 ARE EQUILIBRIUM ITERATIONS.

 TIME INCREMENT COMPLETED  0.160    ,  FRACTION OF STEP COMPLETED  0.966    
 STEP TIME COMPLETED       0.966    ,  TOTAL TIME COMPLETED        0.966    


  INCREMENT    37 STARTS. ATTEMPT NUMBER  1, TIME INCREMENT  3.351E-02
 
	SYMMETRIC PURE THREAD-BASED DIRECT SPARSE SOLVER RUNNING ON
 	1 HOST x 1 MPI RANK PER HOST x 1 THREAD PER RANK
        NUMBER OF EQUATIONS:  90774
        NUMBER OF RHS:        1
        NUMBER OF FLOPS:      6.037e+09
        SOLVER ELAPSED TIME:  239ms

               CONVERGENCE CHECKS FOR EQUILIBRIUM ITERATION     1


 AVERAGE FORCE                      3.257E-03   TIME AVG. FORCE       1.447E-03
 LARGEST SCALED RESIDUAL FORCE      1.105E-02   AT NODE      11029   DOF  1
   INSTANCE: SPIRAL-1                                                                        
  CORRESPONDING RESIDUAL FORCE      1.105E-02
 LARGEST INCREMENT OF DISP.        -2.259E-04   AT NODE        248   DOF  1
   INSTANCE: SPIRAL-1                                                                        
 LARGEST CORRECTION TO DISP.        5.923E-05   AT NODE        248   DOF  1
   INSTANCE: SPIRAL-1                                                                        
          FORCE     EQUILIBRIUM NOT ACHIEVED WITHIN TOLERANCE.
 
	SYMMETRIC PURE THREAD-BASED DIRECT SPARSE SOLVER RUNNING ON
 	1 HOST x 1 MPI RANK PER HOST x 1 THREAD PER RANK
        NUMBER OF EQUATIONS:  90774
        NUMBER OF RHS:        1
        NUMBER OF FLOPS:      6.037e+09
        SOLVER ELAPSED TIME:  252ms

               CONVERGENCE CHECKS FOR EQUILIBRIUM ITERATION     2


 AVERAGE FORCE                      3.127E-03   TIME AVG. FORCE       1.443E-03
 LARGEST SCALED RESIDUAL FORCE      1.101E-06   AT NODE       8665   DOF  2
   INSTANCE: SPIRAL-1                                                                        
  CORRESPONDING RESIDUAL FORCE      1.101E-06
 LARGEST INCREMENT OF DISP.        -2.260E-04   AT NODE        248   DOF  1
   INSTANCE: SPIRAL-1                                                                        
 LARGEST CORRECTION TO DISP.       -4.572E-08   AT NODE        301   DOF  2
   INSTANCE: SPIRAL-1                                                                        
          THE FORCE     EQUILIBRIUM EQUATIONS HAVE CONVERGED

 ITERATION SUMMARY FOR THE INCREMENT:   2 TOTAL ITERATIONS, OF WHICH
   0 ARE SEVERE DISCONTINUITY ITERATIONS AND  2 ARE EQUILIBRIUM ITERATIONS.

 TIME INCREMENT COMPLETED  3.351E-02,  FRACTION OF STEP COMPLETED   1.00    
 STEP TIME COMPLETED        1.00    ,  TOTAL TIME COMPLETED         1.00    


          THE ANALYSIS HAS BEEN COMPLETED



     ANALYSIS SUMMARY:
     TOTAL OF         37  INCREMENTS
                       6  CUTBACKS IN AUTOMATIC INCREMENTATION
                     193  ITERATIONS INCLUDING CONTACT ITERATIONS IF PRESENT
                     193  PASSES THROUGH THE EQUATION SOLVER OF WHICH 
                     193  INVOLVE MATRIX DECOMPOSITION, INCLUDING
                       0  DECOMPOSITION(S) OF THE MASS MATRIX
                       1  REORDERING OF EQUATIONS TO MINIMIZE WAVEFRONT
                       0  ADDITIONAL RESIDUAL EVALUATIONS FOR LINE SEARCHES
                       0  ADDITIONAL OPERATOR EVALUATIONS FOR LINE SEARCHES
                       4  WARNING MESSAGES DURING USER INPUT PROCESSING
                      26  WARNING MESSAGES DURING ANALYSIS
                       0  ANALYSIS WARNINGS ARE NUMERICAL PROBLEM MESSAGES
                      22  ANALYSIS WARNINGS ARE NEGATIVE EIGENVALUE MESSAGES
                       0  ERROR MESSAGES



     JOB TIME SUMMARY
       USER TIME (SEC)      =     4.04E+02
       SYSTEM TIME (SEC)    =      52.    
       TOTAL CPU TIME (SEC) =     4.57E+02
       WALLCLOCK TIME (SEC) =          142
       MEMORY PEAK (GB)     =            0
