1

   Abaqus 2025                                  Date 10-Feb-2026   Time 15:26:08
   For use by UNIVERSITAET STUTTGART under license from Dassault Systemes or its subsidiary.

                                                                                 
                                                                                 
 STEP    1     INCREMENT     1     STEP TIME    0.00    


                        S T E P       1     S T A T I C   A N A L Y S I S


                                                                                          

     AUTOMATIC TIME CONTROL WITH -
          A SUGGESTED INITIAL TIME INCREMENT OF                 1.00    
          AND A TOTAL TIME PERIOD OF                            1.00    
          THE MINIMUM TIME INCREMENT ALLOWED IS                1.000E-05
          THE MAXIMUM TIME INCREMENT ALLOWED IS                 1.00    

     LINEAR EQUATION SOLVER TYPE         DIRECT SPARSE

 CONVERGENCE TOLERANCE PARAMETERS FOR FORCE    
     CRITERION FOR RESIDUAL FORCE     FOR A NONLINEAR PROBLEM          5.000E-03
     CRITERION FOR DISP.    CORRECTION IN A NONLINEAR PROBLEM          1.000E-02
     INITIAL VALUE OF TIME AVERAGE FORCE                               1.000E-02
     AVERAGE FORCE     IS TIME AVERAGE FORCE    
     ALTERNATE CRIT. FOR RESIDUAL FORCE     FOR A NONLINEAR PROBLEM    2.000E-02
     CRITERION FOR ZERO FORCE     RELATIVE TO TIME AVRG. FORCE         1.000E-05
     CRITERION FOR RESIDUAL FORCE     WHEN THERE IS ZERO FLUX          1.000E-05
     CRITERION FOR DISP.    CORRECTION WHEN THERE IS ZERO FLUX         1.000E-03
     CRITERION FOR RESIDUAL FORCE     FOR A LINEAR INCREMENT           1.000E-08
     FIELD CONVERSION RATIO                                             1.00    
     CRITERION FOR ZERO FORCE     REL. TO TIME AVRG. MAX. FORCE        1.000E-05
     CRITERION FOR ZERO DISP.    RELATIVE TO CHARACTERISTIC LENGTH     1.000E-08

     VOLUMETRIC STRAIN COMPATIBILITY TOLERANCE FOR HYBRID SOLIDS       1.000E-05
     AXIAL STRAIN COMPATIBILITY TOLERANCE FOR HYBRID BEAMS             1.000E-05
     TRANS. SHEAR STRAIN COMPATIBILITY TOLERANCE FOR HYBRID BEAMS      1.000E-05
     SOFT CONTACT CONSTRAINT COMPATIBILITY TOLERANCE FOR P>P0          5.000E-03
     SOFT CONTACT CONSTRAINT COMPATIBILITY TOLERANCE FOR P=0.0         0.100    
     CONTACT FORCE ERROR TOLERANCE FOR CONVERT SDI=YES                 1.00    
     DISPLACEMENT COMPATIBILITY TOLERANCE FOR DCOUP ELEMENTS           1.000E-05
     ROTATION COMPATIBILITY TOLERANCE FOR DCOUP ELEMENTS               1.000E-05

 EQUILIBRIUM WILL BE CHECKED FOR SEVERE DISCONTINUITY ITERATIONS

 TIME INCREMENTATION CONTROL PARAMETERS:
     FIRST EQUILIBRIUM ITERATION FOR CONSECUTIVE DIVERGENCE CHECK              4
     EQUILIBRIUM ITERATION AT WHICH LOG. CONVERGENCE RATE CHECK BEGINS         8
     EQUILIBRIUM ITERATION AFTER WHICH ALTERNATE RESIDUAL IS USED              9
     MAXIMUM EQUILIBRIUM ITERATIONS ALLOWED                                   16
     EQUILIBRIUM ITERATION COUNT FOR CUT-BACK IN NEXT INCREMENT               10
     MAXIMUM EQUILIB. ITERS IN TWO INCREMENTS FOR TIME INCREMENT INCREASE      4
     MAXIMUM ITERATIONS FOR SEVERE DISCONTINUITIES                            50
     MAXIMUM ATTEMPTS ALLOWED IN AN INCREMENT                                  5
     MAXIMUM DISCON. ITERS IN TWO INCREMENTS FOR TIME INCREMENT INCREASE      50
     MAXIMUM CONTACT AUGMENTATIONS FOR *SURFACE BEHAVIOR,AUGMENTED LAGRANGE   50
     CUT-BACK FACTOR AFTER DIVERGENCE                                 0.2500    
     CUT-BACK FACTOR FOR TOO SLOW CONVERGENCE                         0.5000    
     CUT-BACK FACTOR AFTER TOO MANY EQUILIBRIUM ITERATIONS            0.7500    
     CUT-BACK FACTOR AFTER TOO MANY SEVERE DISCONTINUITY ITERATIONS   0.2500    
     CUT-BACK FACTOR AFTER PROBLEMS IN ELEMENT ASSEMBLY               0.2500    
     INCREASE FACTOR AFTER TWO INCREMENTS THAT CONVERGE QUICKLY        1.500    
     MAX. TIME INCREMENT INCREASE FACTOR ALLOWED                       1.500    
     MAX. TIME INCREMENT INCREASE FACTOR ALLOWED (DYNAMICS)            1.250    
     MAX. TIME INCREMENT INCREASE FACTOR ALLOWED (DIFFUSION)           2.000    
     MINIMUM TIME INCREMENT RATIO FOR EXTRAPOLATION TO OCCUR          0.1000    
     MAX. RATIO OF TIME INCREMENT TO STABILITY LIMIT                   1.000    
     FRACTION OF STABILITY LIMIT FOR NEW TIME INCREMENT               0.9500    
     TIME INCREMENT INCREASE FACTOR BEFORE A TIME POINT                1.000    
     GLOBAL STABILIZATION CONTROL IS NOT USED

          PRINT OF INCREMENT NUMBER, TIME, ETC., EVERY    1  INCREMENTS

     THE MAXIMUM NUMBER OF INCREMENTS IN THIS STEP IS                     100

          LARGE DISPLACEMENT THEORY WILL BE USED

     LINEAR EXTRAPOLATION WILL BE USED

     CHARACTERISTIC ELEMENT LENGTH     8.268E-04

     DETAILS REGARDING ACTUAL SOLUTION WAVEFRONT REQUESTED

     DETAILED OUTPUT OF DIAGNOSTICS TO DATABASE REQUESTED

     PRINT OF INCREMENT NUMBER, TIME, ETC., TO THE MESSAGE FILE EVERY     1  INCREMENTS

     COLLECTING MODEL CONSTRAINT INFORMATION FOR OVERCONSTRAINT CHECKS

     COLLECTING STEP CONSTRAINT INFORMATION FOR OVERCONSTRAINT CHECKS


  INCREMENT     1 STARTS. ATTEMPT NUMBER  1, TIME INCREMENT   1.00    
 
	SYMMETRIC PURE THREAD-BASED DIRECT SPARSE SOLVER RUNNING ON
 	1 HOST x 1 MPI RANK PER HOST x 1 THREAD PER RANK
        NUMBER OF EQUATIONS:  90774
        NUMBER OF RHS:        1
        NUMBER OF FLOPS:      6.037e+09
        SOLVER ELAPSED TIME:  230ms
   ELEMENT SPIRAL-1.1 IS DISTORTING EXCESSIVELY.
   ELEMENT SPIRAL-1.21 IS DISTORTING EXCESSIVELY.
   ELEMENT SPIRAL-1.23 IS DISTORTING EXCESSIVELY.
   ELEMENT SPIRAL-1.41 IS DISTORTING EXCESSIVELY.
   ELEMENT SPIRAL-1.43 IS DISTORTING EXCESSIVELY.
   ELEMENT SPIRAL-1.70 IS DISTORTING EXCESSIVELY.
   ELEMENT SPIRAL-1.99 IS DISTORTING EXCESSIVELY.
   ELEMENT SPIRAL-1.135 IS DISTORTING EXCESSIVELY.
   ELEMENT SPIRAL-1.136 IS DISTORTING EXCESSIVELY.
   ELEMENT SPIRAL-1.172 IS DISTORTING EXCESSIVELY.
   ELEMENT SPIRAL-1.190 IS DISTORTING EXCESSIVELY.
   ELEMENT SPIRAL-1.203 IS DISTORTING EXCESSIVELY.
   ELEMENT SPIRAL-1.206 IS DISTORTING EXCESSIVELY.
   ELEMENT SPIRAL-1.229 IS DISTORTING EXCESSIVELY.
   ELEMENT SPIRAL-1.279 IS DISTORTING EXCESSIVELY.
   ELEMENT SPIRAL-1.331 IS DISTORTING EXCESSIVELY.
   ELEMENT SPIRAL-1.346 IS DISTORTING EXCESSIVELY.
   ELEMENT SPIRAL-1.347 IS DISTORTING EXCESSIVELY.
   ELEMENT SPIRAL-1.1046 IS DISTORTING EXCESSIVELY.
   ELEMENT SPIRAL-1.1066 IS DISTORTING EXCESSIVELY.
   ELEMENT SPIRAL-1.1067 IS DISTORTING EXCESSIVELY.
   ELEMENT SPIRAL-1.1087 IS DISTORTING EXCESSIVELY.
   ELEMENT SPIRAL-1.2551 IS DISTORTING EXCESSIVELY.
   ELEMENT SPIRAL-1.2578 IS DISTORTING EXCESSIVELY.
   ELEMENT SPIRAL-1.2579 IS DISTORTING EXCESSIVELY.
   ELEMENT SPIRAL-1.2606 IS DISTORTING EXCESSIVELY.
   ELEMENT SPIRAL-1.4616 IS DISTORTING EXCESSIVELY.
   ELEMENT SPIRAL-1.4652 IS DISTORTING EXCESSIVELY.
   ELEMENT SPIRAL-1.4653 IS DISTORTING EXCESSIVELY.
   ELEMENT SPIRAL-1.4689 IS DISTORTING EXCESSIVELY.
   ELEMENT SPIRAL-1.5436 IS DISTORTING EXCESSIVELY.
   ELEMENT SPIRAL-1.5447 IS DISTORTING EXCESSIVELY.
   ELEMENT SPIRAL-1.5448 IS DISTORTING EXCESSIVELY.
   ELEMENT SPIRAL-1.5460 IS DISTORTING EXCESSIVELY.
   ELEMENT SPIRAL-1.5461 IS DISTORTING EXCESSIVELY.
   ELEMENT SPIRAL-1.5498 IS DISTORTING EXCESSIVELY.
   ELEMENT SPIRAL-1.5499 IS DISTORTING EXCESSIVELY.
   ELEMENT SPIRAL-1.5546 IS DISTORTING EXCESSIVELY.
   ELEMENT SPIRAL-1.5547 IS DISTORTING EXCESSIVELY.
   ELEMENT SPIRAL-1.5548 IS DISTORTING EXCESSIVELY.
   ELEMENT SPIRAL-1.5608 IS DISTORTING EXCESSIVELY.
   ELEMENT SPIRAL-1.5609 IS DISTORTING EXCESSIVELY.
   ELEMENT SPIRAL-1.5610 IS DISTORTING EXCESSIVELY.
   ELEMENT SPIRAL-1.5611 IS DISTORTING EXCESSIVELY.
   ELEMENT SPIRAL-1.5612 IS DISTORTING EXCESSIVELY.
   ELEMENT SPIRAL-1.5613 IS DISTORTING EXCESSIVELY.

 ***WARNING: EXCESSIVE DISTORTION AT A TOTAL OF 46 INTEGRATION POINTS IN SOLID 
             (CONTINUUM) ELEMENTS
 

 ***NOTE: ELEMENTS ARE DISTORTING EXCESSIVELY. CONVERGENCE IS JUDGED UNLIKELY.


  INCREMENT     1 STARTS. ATTEMPT NUMBER  2, TIME INCREMENT  0.250    
 
	SYMMETRIC PURE THREAD-BASED DIRECT SPARSE SOLVER RUNNING ON
 	1 HOST x 1 MPI RANK PER HOST x 1 THREAD PER RANK
        NUMBER OF EQUATIONS:  90774
        NUMBER OF RHS:        1
        NUMBER OF FLOPS:      6.037e+09
        SOLVER ELAPSED TIME:  233ms
   ELEMENT SPIRAL-1.43 IS DISTORTING EXCESSIVELY.
   ELEMENT SPIRAL-1.70 IS DISTORTING EXCESSIVELY.
   ELEMENT SPIRAL-1.99 IS DISTORTING EXCESSIVELY.
   ELEMENT SPIRAL-1.135 IS DISTORTING EXCESSIVELY.
   ELEMENT SPIRAL-1.229 IS DISTORTING EXCESSIVELY.
   ELEMENT SPIRAL-1.279 IS DISTORTING EXCESSIVELY.
   ELEMENT SPIRAL-1.5460 IS DISTORTING EXCESSIVELY.
   ELEMENT SPIRAL-1.5461 IS DISTORTING EXCESSIVELY.
   ELEMENT SPIRAL-1.5498 IS DISTORTING EXCESSIVELY.
   ELEMENT SPIRAL-1.5499 IS DISTORTING EXCESSIVELY.
   ELEMENT SPIRAL-1.5546 IS DISTORTING EXCESSIVELY.
   ELEMENT SPIRAL-1.5547 IS DISTORTING EXCESSIVELY.
   ELEMENT SPIRAL-1.5608 IS DISTORTING EXCESSIVELY.
   ELEMENT SPIRAL-1.5609 IS DISTORTING EXCESSIVELY.
   ELEMENT SPIRAL-1.5610 IS DISTORTING EXCESSIVELY.
   ELEMENT SPIRAL-1.5611 IS DISTORTING EXCESSIVELY.

 ***WARNING: EXCESSIVE DISTORTION AT A TOTAL OF 16 INTEGRATION POINTS IN SOLID 
             (CONTINUUM) ELEMENTS
 

 ***NOTE: ELEMENTS ARE DISTORTING EXCESSIVELY. CONVERGENCE IS JUDGED UNLIKELY.


  INCREMENT     1 STARTS. ATTEMPT NUMBER  3, TIME INCREMENT  6.250E-02
 
	SYMMETRIC PURE THREAD-BASED DIRECT SPARSE SOLVER RUNNING ON
 	1 HOST x 1 MPI RANK PER HOST x 1 THREAD PER RANK
        NUMBER OF EQUATIONS:  90774
        NUMBER OF RHS:        1
        NUMBER OF FLOPS:      6.037e+09
        SOLVER ELAPSED TIME:  229ms
   ELEMENT SPIRAL-1.5546 IS DISTORTING EXCESSIVELY.
   ELEMENT SPIRAL-1.5547 IS DISTORTING EXCESSIVELY.
   ELEMENT SPIRAL-1.5608 IS DISTORTING EXCESSIVELY.
   ELEMENT SPIRAL-1.5609 IS DISTORTING EXCESSIVELY.
   ELEMENT SPIRAL-1.5610 IS DISTORTING EXCESSIVELY.
   ELEMENT SPIRAL-1.5611 IS DISTORTING EXCESSIVELY.

 ***WARNING: EXCESSIVE DISTORTION AT A TOTAL OF 6 INTEGRATION POINTS IN SOLID 
             (CONTINUUM) ELEMENTS
 

 ***NOTE: ELEMENTS ARE DISTORTING EXCESSIVELY. CONVERGENCE IS JUDGED UNLIKELY.


  INCREMENT     1 STARTS. ATTEMPT NUMBER  4, TIME INCREMENT  1.562E-02
 
	SYMMETRIC PURE THREAD-BASED DIRECT SPARSE SOLVER RUNNING ON
 	1 HOST x 1 MPI RANK PER HOST x 1 THREAD PER RANK
        NUMBER OF EQUATIONS:  90774
        NUMBER OF RHS:        1
        NUMBER OF FLOPS:      6.037e+09
        SOLVER ELAPSED TIME:  231ms

               CONVERGENCE CHECKS FOR EQUILIBRIUM ITERATION     1


 AVERAGE FORCE                      2.059E+04   TIME AVG. FORCE       2.059E+04
 LARGEST SCALED RESIDUAL FORCE     -4.409E+05   AT NODE      10745   DOF  2
   INSTANCE: SPIRAL-1                                                                        
  CORRESPONDING RESIDUAL FORCE     -4.409E+05
 LARGEST INCREMENT OF DISP.        -0.519       AT NODE       3156   DOF  3
   INSTANCE: SPIRAL-1                                                                        
 LARGEST CORRECTION TO DISP.       -0.519       AT NODE       3156   DOF  3
   INSTANCE: SPIRAL-1                                                                        
          FORCE     EQUILIBRIUM NOT ACHIEVED WITHIN TOLERANCE.
 
	SYMMETRIC PURE THREAD-BASED DIRECT SPARSE SOLVER RUNNING ON
 	1 HOST x 1 MPI RANK PER HOST x 1 THREAD PER RANK
        NUMBER OF EQUATIONS:  90774
        NUMBER OF RHS:        1
        NUMBER OF FLOPS:      6.037e+09
        SOLVER ELAPSED TIME:  226ms
 

 ***WARNING: THE SYSTEM MATRIX HAS 32912 NEGATIVE EIGENVALUES.

     NEGATIVE EIGENVALUES MEAN THAT THE SYSTEM MATRIX IS NOT 
     POSITIVE DEFINITE:
     FOR EXAMPLE, A BIFURCATION (BUCKLING) LOAD MAY HAVE BEEN EXCEEDED.
   ELEMENT SPIRAL-1.1 IS DISTORTING EXCESSIVELY.
   ELEMENT SPIRAL-1.2 IS DISTORTING EXCESSIVELY.
   ELEMENT SPIRAL-1.6 IS DISTORTING EXCESSIVELY.
   ELEMENT SPIRAL-1.7 IS DISTORTING EXCESSIVELY.
   ELEMENT SPIRAL-1.9 IS DISTORTING EXCESSIVELY.
   ELEMENT SPIRAL-1.10 IS DISTORTING EXCESSIVELY.
   ELEMENT SPIRAL-1.11 IS DISTORTING EXCESSIVELY.
   ELEMENT SPIRAL-1.12 IS DISTORTING EXCESSIVELY.
   ELEMENT SPIRAL-1.13 IS DISTORTING EXCESSIVELY.
   ELEMENT SPIRAL-1.14 IS DISTORTING EXCESSIVELY.
   ELEMENT SPIRAL-1.16 IS DISTORTING EXCESSIVELY.
   ELEMENT SPIRAL-1.19 IS DISTORTING EXCESSIVELY.
   ELEMENT SPIRAL-1.22 IS DISTORTING EXCESSIVELY.
   ELEMENT SPIRAL-1.24 IS DISTORTING EXCESSIVELY.
   ELEMENT SPIRAL-1.28 IS DISTORTING EXCESSIVELY.
   ELEMENT SPIRAL-1.29 IS DISTORTING EXCESSIVELY.
   ELEMENT SPIRAL-1.34 IS DISTORTING EXCESSIVELY.
   ELEMENT SPIRAL-1.38 IS DISTORTING EXCESSIVELY.
   ELEMENT SPIRAL-1.40 IS DISTORTING EXCESSIVELY.
   ELEMENT SPIRAL-1.41 IS DISTORTING EXCESSIVELY.
   ELEMENT SPIRAL-1.42 IS DISTORTING EXCESSIVELY.
   ELEMENT SPIRAL-1.43 IS DISTORTING EXCESSIVELY.
   ELEMENT SPIRAL-1.44 IS DISTORTING EXCESSIVELY.
   ELEMENT SPIRAL-1.49 IS DISTORTING EXCESSIVELY.
   ELEMENT SPIRAL-1.55 IS DISTORTING EXCESSIVELY.
   ELEMENT SPIRAL-1.56 IS DISTORTING EXCESSIVELY.
   ELEMENT SPIRAL-1.61 IS DISTORTING EXCESSIVELY.
   ELEMENT SPIRAL-1.66 IS DISTORTING EXCESSIVELY.
   ELEMENT SPIRAL-1.67 IS DISTORTING EXCESSIVELY.
   ELEMENT SPIRAL-1.68 IS DISTORTING EXCESSIVELY.
   ELEMENT SPIRAL-1.69 IS DISTORTING EXCESSIVELY.
   ELEMENT SPIRAL-1.70 IS DISTORTING EXCESSIVELY.
   ELEMENT SPIRAL-1.71 IS DISTORTING EXCESSIVELY.
   ELEMENT SPIRAL-1.73 IS DISTORTING EXCESSIVELY.
   ELEMENT SPIRAL-1.74 IS DISTORTING EXCESSIVELY.
   ELEMENT SPIRAL-1.75 IS DISTORTING EXCESSIVELY.
   ELEMENT SPIRAL-1.76 IS DISTORTING EXCESSIVELY.
   ELEMENT SPIRAL-1.79 IS DISTORTING EXCESSIVELY.
   ELEMENT SPIRAL-1.84 IS DISTORTING EXCESSIVELY.
   ELEMENT SPIRAL-1.85 IS DISTORTING EXCESSIVELY.
   ELEMENT SPIRAL-1.86 IS DISTORTING EXCESSIVELY.
   ELEMENT SPIRAL-1.87 IS DISTORTING EXCESSIVELY.
   ELEMENT SPIRAL-1.90 IS DISTORTING EXCESSIVELY.
   ELEMENT SPIRAL-1.91 IS DISTORTING EXCESSIVELY.
   ELEMENT SPIRAL-1.92 IS DISTORTING EXCESSIVELY.
   ELEMENT SPIRAL-1.93 IS DISTORTING EXCESSIVELY.
   ELEMENT SPIRAL-1.96 IS DISTORTING EXCESSIVELY.
   ELEMENT SPIRAL-1.98 IS DISTORTING EXCESSIVELY.
   ELEMENT SPIRAL-1.99 IS DISTORTING EXCESSIVELY.
   ELEMENT SPIRAL-1.101 IS DISTORTING EXCESSIVELY.
   ELEMENT SPIRAL-1.103 IS DISTORTING EXCESSIVELY.
   ELEMENT SPIRAL-1.104 IS DISTORTING EXCESSIVELY.
   ELEMENT SPIRAL-1.108 IS DISTORTING EXCESSIVELY.
   ELEMENT SPIRAL-1.112 IS DISTORTING EXCESSIVELY.
   ELEMENT SPIRAL-1.113 IS DISTORTING EXCESSIVELY.
   ELEMENT SPIRAL-1.114 IS DISTORTING EXCESSIVELY.
   ELEMENT SPIRAL-1.118 IS DISTORTING EXCESSIVELY.
   ELEMENT SPIRAL-1.119 IS DISTORTING EXCESSIVELY.
   ELEMENT SPIRAL-1.120 IS DISTORTING EXCESSIVELY.
   ELEMENT SPIRAL-1.121 IS DISTORTING EXCESSIVELY.
   ELEMENT SPIRAL-1.123 IS DISTORTING EXCESSIVELY.
   ELEMENT SPIRAL-1.132 IS DISTORTING EXCESSIVELY.
   ELEMENT SPIRAL-1.133 IS DISTORTING EXCESSIVELY.
   ELEMENT SPIRAL-1.135 IS DISTORTING EXCESSIVELY.
   ELEMENT SPIRAL-1.137 IS DISTORTING EXCESSIVELY.
   ELEMENT SPIRAL-1.139 IS DISTORTING EXCESSIVELY.
   ELEMENT SPIRAL-1.146 IS DISTORTING EXCESSIVELY.
   ELEMENT SPIRAL-1.147 IS DISTORTING EXCESSIVELY.
   ELEMENT SPIRAL-1.151 IS DISTORTING EXCESSIVELY.
   ELEMENT SPIRAL-1.155 IS DISTORTING EXCESSIVELY.
   ELEMENT SPIRAL-1.156 IS DISTORTING EXCESSIVELY.
   ELEMENT SPIRAL-1.158 IS DISTORTING EXCESSIVELY.
   ELEMENT SPIRAL-1.160 IS DISTORTING EXCESSIVELY.
   ELEMENT SPIRAL-1.161 IS DISTORTING EXCESSIVELY.
   ELEMENT SPIRAL-1.162 IS DISTORTING EXCESSIVELY.
   ELEMENT SPIRAL-1.165 IS DISTORTING EXCESSIVELY.
   ELEMENT SPIRAL-1.167 IS DISTORTING EXCESSIVELY.
   ELEMENT SPIRAL-1.169 IS DISTORTING EXCESSIVELY.
   ELEMENT SPIRAL-1.171 IS DISTORTING EXCESSIVELY.
   ELEMENT SPIRAL-1.172 IS DISTORTING EXCESSIVELY.
   ELEMENT SPIRAL-1.173 IS DISTORTING EXCESSIVELY.
   ELEMENT SPIRAL-1.175 IS DISTORTING EXCESSIVELY.
   ELEMENT SPIRAL-1.177 IS DISTORTING EXCESSIVELY.
   ELEMENT SPIRAL-1.179 IS DISTORTING EXCESSIVELY.
   ELEMENT SPIRAL-1.180 IS DISTORTING EXCESSIVELY.
   ELEMENT SPIRAL-1.181 IS DISTORTING EXCESSIVELY.
   ELEMENT SPIRAL-1.182 IS DISTORTING EXCESSIVELY.
   ELEMENT SPIRAL-1.184 IS DISTORTING EXCESSIVELY.
   ELEMENT SPIRAL-1.186 IS DISTORTING EXCESSIVELY.
   ELEMENT SPIRAL-1.190 IS DISTORTING EXCESSIVELY.
   ELEMENT SPIRAL-1.192 IS DISTORTING EXCESSIVELY.
   ELEMENT SPIRAL-1.194 IS DISTORTING EXCESSIVELY.
   ELEMENT SPIRAL-1.195 IS DISTORTING EXCESSIVELY.
   ELEMENT SPIRAL-1.199 IS DISTORTING EXCESSIVELY.
   ELEMENT SPIRAL-1.200 IS DISTORTING EXCESSIVELY.
   ELEMENT SPIRAL-1.203 IS DISTORTING EXCESSIVELY.
   ELEMENT SPIRAL-1.204 IS DISTORTING EXCESSIVELY.
   ELEMENT SPIRAL-1.206 IS DISTORTING EXCESSIVELY.
   ELEMENT SPIRAL-1.207 IS DISTORTING EXCESSIVELY.
   ELEMENT SPIRAL-1.212 IS DISTORTING EXCESSIVELY.
   ELEMENT SPIRAL-1.217 IS DISTORTING EXCESSIVELY.
   ELEMENT SPIRAL-1.220 IS DISTORTING EXCESSIVELY.
   ELEMENT SPIRAL-1.221 IS DISTORTING EXCESSIVELY.
   ELEMENT SPIRAL-1.222 IS DISTORTING EXCESSIVELY.
   ELEMENT SPIRAL-1.226 IS DISTORTING EXCESSIVELY.
   ELEMENT SPIRAL-1.228 IS DISTORTING EXCESSIVELY.
   ELEMENT SPIRAL-1.229 IS DISTORTING EXCESSIVELY.
   ELEMENT SPIRAL-1.232 IS DISTORTING EXCESSIVELY.
   ELEMENT SPIRAL-1.234 IS DISTORTING EXCESSIVELY.
   ELEMENT SPIRAL-1.235 IS DISTORTING EXCESSIVELY.
   ELEMENT SPIRAL-1.237 IS DISTORTING EXCESSIVELY.
   ELEMENT SPIRAL-1.241 IS DISTORTING EXCESSIVELY.
   ELEMENT SPIRAL-1.242 IS DISTORTING EXCESSIVELY.
   ELEMENT SPIRAL-1.249 IS DISTORTING EXCESSIVELY.
   ELEMENT SPIRAL-1.250 IS DISTORTING EXCESSIVELY.
   ELEMENT SPIRAL-1.252 IS DISTORTING EXCESSIVELY.
   ELEMENT SPIRAL-1.254 IS DISTORTING EXCESSIVELY.
   ELEMENT SPIRAL-1.257 IS DISTORTING EXCESSIVELY.
   ELEMENT SPIRAL-1.259 IS DISTORTING EXCESSIVELY.
   ELEMENT SPIRAL-1.261 IS DISTORTING EXCESSIVELY.
   ELEMENT SPIRAL-1.262 IS DISTORTING EXCESSIVELY.
   ELEMENT SPIRAL-1.264 IS DISTORTING EXCESSIVELY.
   ELEMENT SPIRAL-1.265 IS DISTORTING EXCESSIVELY.
   ELEMENT SPIRAL-1.270 IS DISTORTING EXCESSIVELY.
   ELEMENT SPIRAL-1.272 IS DISTORTING EXCESSIVELY.
   ELEMENT SPIRAL-1.274 IS DISTORTING EXCESSIVELY.
   ELEMENT SPIRAL-1.279 IS DISTORTING EXCESSIVELY.
   ELEMENT SPIRAL-1.280 IS DISTORTING EXCESSIVELY.
   ELEMENT SPIRAL-1.283 IS DISTORTING EXCESSIVELY.
   ELEMENT SPIRAL-1.286 IS DISTORTING EXCESSIVELY.
   ELEMENT SPIRAL-1.287 IS DISTORTING EXCESSIVELY.
   ELEMENT SPIRAL-1.290 IS DISTORTING EXCESSIVELY.
   ELEMENT SPIRAL-1.291 IS DISTORTING EXCESSIVELY.
   ELEMENT SPIRAL-1.292 IS DISTORTING EXCESSIVELY.
   ELEMENT SPIRAL-1.293 IS DISTORTING EXCESSIVELY.
   ELEMENT SPIRAL-1.294 IS DISTORTING EXCESSIVELY.
   ELEMENT SPIRAL-1.295 IS DISTORTING EXCESSIVELY.
   ELEMENT SPIRAL-1.296 IS DISTORTING EXCESSIVELY.
   ELEMENT SPIRAL-1.297 IS DISTORTING EXCESSIVELY.
   ELEMENT SPIRAL-1.298 IS DISTORTING EXCESSIVELY.
   ELEMENT SPIRAL-1.299 IS DISTORTING EXCESSIVELY.
   ELEMENT SPIRAL-1.300 IS DISTORTING EXCESSIVELY.
   ELEMENT SPIRAL-1.301 IS DISTORTING EXCESSIVELY.
   ELEMENT SPIRAL-1.304 IS DISTORTING EXCESSIVELY.
   ELEMENT SPIRAL-1.308 IS DISTORTING EXCESSIVELY.
   ELEMENT SPIRAL-1.309 IS DISTORTING EXCESSIVELY.
   ELEMENT SPIRAL-1.311 IS DISTORTING EXCESSIVELY.
   ELEMENT SPIRAL-1.314 IS DISTORTING EXCESSIVELY.
   ELEMENT SPIRAL-1.316 IS DISTORTING EXCESSIVELY.
   ELEMENT SPIRAL-1.318 IS DISTORTING EXCESSIVELY.
   ELEMENT SPIRAL-1.320 IS DISTORTING EXCESSIVELY.
   ELEMENT SPIRAL-1.321 IS DISTORTING EXCESSIVELY.
   ELEMENT SPIRAL-1.323 IS DISTORTING EXCESSIVELY.
   ELEMENT SPIRAL-1.326 IS DISTORTING EXCESSIVELY.
   ELEMENT SPIRAL-1.329 IS DISTORTING EXCESSIVELY.
   ELEMENT SPIRAL-1.330 IS DISTORTING EXCESSIVELY.
   ELEMENT SPIRAL-1.332 IS DISTORTING EXCESSIVELY.
   ELEMENT SPIRAL-1.333 IS DISTORTING EXCESSIVELY.
   ELEMENT SPIRAL-1.334 IS DISTORTING EXCESSIVELY.
   ELEMENT SPIRAL-1.335 IS DISTORTING EXCESSIVELY.
   ELEMENT SPIRAL-1.337 IS DISTORTING EXCESSIVELY.
   ELEMENT SPIRAL-1.338 IS DISTORTING EXCESSIVELY.
   ELEMENT SPIRAL-1.339 IS DISTORTING EXCESSIVELY.
   ELEMENT SPIRAL-1.340 IS DISTORTING EXCESSIVELY.
   ELEMENT SPIRAL-1.341 IS DISTORTING EXCESSIVELY.
   ELEMENT SPIRAL-1.343 IS DISTORTING EXCESSIVELY.
   ELEMENT SPIRAL-1.344 IS DISTORTING EXCESSIVELY.
   ELEMENT SPIRAL-1.345 IS DISTORTING EXCESSIVELY.
   ELEMENT SPIRAL-1.347 IS DISTORTING EXCESSIVELY.
   ELEMENT SPIRAL-1.348 IS DISTORTING EXCESSIVELY.
   ELEMENT SPIRAL-1.350 IS DISTORTING EXCESSIVELY.
   ELEMENT SPIRAL-1.352 IS DISTORTING EXCESSIVELY.
   ELEMENT SPIRAL-1.353 IS DISTORTING EXCESSIVELY.
   ELEMENT SPIRAL-1.356 IS DISTORTING EXCESSIVELY.
   ELEMENT SPIRAL-1.357 IS DISTORTING EXCESSIVELY.
   ELEMENT SPIRAL-1.358 IS DISTORTING EXCESSIVELY.
   ELEMENT SPIRAL-1.359 IS DISTORTING EXCESSIVELY.
   ELEMENT SPIRAL-1.360 IS DISTORTING EXCESSIVELY.
   ELEMENT SPIRAL-1.363 IS DISTORTING EXCESSIVELY.
   ELEMENT SPIRAL-1.364 IS DISTORTING EXCESSIVELY.
   ELEMENT SPIRAL-1.366 IS DISTORTING EXCESSIVELY.
   ELEMENT SPIRAL-1.368 IS DISTORTING EXCESSIVELY.
   ELEMENT SPIRAL-1.369 IS DISTORTING EXCESSIVELY.
   ELEMENT SPIRAL-1.370 IS DISTORTING EXCESSIVELY.
   ELEMENT SPIRAL-1.371 IS DISTORTING EXCESSIVELY.
   ELEMENT SPIRAL-1.375 IS DISTORTING EXCESSIVELY.
   ELEMENT SPIRAL-1.377 IS DISTORTING EXCESSIVELY.
   ELEMENT SPIRAL-1.378 IS DISTORTING EXCESSIVELY.
   ELEMENT SPIRAL-1.380 IS DISTORTING EXCESSIVELY.
   ELEMENT SPIRAL-1.384 IS DISTORTING EXCESSIVELY.
   ELEMENT SPIRAL-1.388 IS DISTORTING EXCESSIVELY.
   ELEMENT SPIRAL-1.390 IS DISTORTING EXCESSIVELY.
   ELEMENT SPIRAL-1.392 IS DISTORTING EXCESSIVELY.
   ELEMENT SPIRAL-1.393 IS DISTORTING EXCESSIVELY.
   ELEMENT SPIRAL-1.395 IS DISTORTING EXCESSIVELY.
   ELEMENT SPIRAL-1.396 IS DISTORTING EXCESSIVELY.
   ELEMENT SPIRAL-1.399 IS DISTORTING EXCESSIVELY.
   ELEMENT SPIRAL-1.400 IS DISTORTING EXCESSIVELY.
   ELEMENT SPIRAL-1.401 IS DISTORTING EXCESSIVELY.
   ELEMENT SPIRAL-1.408 IS DISTORTING EXCESSIVELY.
   ELEMENT SPIRAL-1.409 IS DISTORTING EXCESSIVELY.
   ELEMENT SPIRAL-1.410 IS DISTORTING EXCESSIVELY.
   ELEMENT SPIRAL-1.412 IS DISTORTING EXCESSIVELY.
   ELEMENT SPIRAL-1.413 IS DISTORTING EXCESSIVELY.
   ELEMENT SPIRAL-1.414 IS DISTORTING EXCESSIVELY.
   ELEMENT SPIRAL-1.420 IS DISTORTING EXCESSIVELY.
   ELEMENT SPIRAL-1.421 IS DISTORTING EXCESSIVELY.
   ELEMENT SPIRAL-1.424 IS DISTORTING EXCESSIVELY.
   ELEMENT SPIRAL-1.427 IS DISTORTING EXCESSIVELY.
   ELEMENT SPIRAL-1.428 IS DISTORTING EXCESSIVELY.
   ELEMENT SPIRAL-1.429 IS DISTORTING EXCESSIVELY.
   ELEMENT SPIRAL-1.430 IS DISTORTING EXCESSIVELY.
   ELEMENT SPIRAL-1.431 IS DISTORTING EXCESSIVELY.
   ELEMENT SPIRAL-1.432 IS DISTORTING EXCESSIVELY.
   ELEMENT SPIRAL-1.433 IS DISTORTING EXCESSIVELY.
   ELEMENT SPIRAL-1.436 IS DISTORTING EXCESSIVELY.
   ELEMENT SPIRAL-1.438 IS DISTORTING EXCESSIVELY.
   ELEMENT SPIRAL-1.444 IS DISTORTING EXCESSIVELY.
   ELEMENT SPIRAL-1.446 IS DISTORTING EXCESSIVELY.
   ELEMENT SPIRAL-1.450 IS DISTORTING EXCESSIVELY.
   ELEMENT SPIRAL-1.456 IS DISTORTING EXCESSIVELY.
   ELEMENT SPIRAL-1.457 IS DISTORTING EXCESSIVELY.
   ELEMENT SPIRAL-1.462 IS DISTORTING EXCESSIVELY.
   ELEMENT SPIRAL-1.463 IS DISTORTING EXCESSIVELY.
   ELEMENT SPIRAL-1.464 IS DISTORTING EXCESSIVELY.
   ELEMENT SPIRAL-1.465 IS DISTORTING EXCESSIVELY.
   ELEMENT SPIRAL-1.467 IS DISTORTING EXCESSIVELY.
   ELEMENT SPIRAL-1.468 IS DISTORTING EXCESSIVELY.
   ELEMENT SPIRAL-1.470 IS DISTORTING EXCESSIVELY.
   ELEMENT SPIRAL-1.472 IS DISTORTING EXCESSIVELY.
   ELEMENT SPIRAL-1.473 IS DISTORTING EXCESSIVELY.
   ELEMENT SPIRAL-1.475 IS DISTORTING EXCESSIVELY.
   ELEMENT SPIRAL-1.478 IS DISTORTING EXCESSIVELY.
   ELEMENT SPIRAL-1.481 IS DISTORTING EXCESSIVELY.
   ELEMENT SPIRAL-1.482 IS DISTORTING EXCESSIVELY.
   ELEMENT SPIRAL-1.483 IS DISTORTING EXCESSIVELY.
   ELEMENT SPIRAL-1.484 IS DISTORTING EXCESSIVELY.
   ELEMENT SPIRAL-1.487 IS DISTORTING EXCESSIVELY.
   ELEMENT SPIRAL-1.488 IS DISTORTING EXCESSIVELY.
   ELEMENT SPIRAL-1.489 IS DISTORTING EXCESSIVELY.
   ELEMENT SPIRAL-1.490 IS DISTORTING EXCESSIVELY.
   ELEMENT SPIRAL-1.493 IS DISTORTING EXCESSIVELY.
   ELEMENT SPIRAL-1.494 IS DISTORTING EXCESSIVELY.
   ELEMENT SPIRAL-1.496 IS DISTORTING EXCESSIVELY.
   ELEMENT SPIRAL-1.497 IS DISTORTING EXCESSIVELY.
   ELEMENT SPIRAL-1.498 IS DISTORTING EXCESSIVELY.
   ELEMENT SPIRAL-1.499 IS DISTORTING EXCESSIVELY.
   ELEMENT SPIRAL-1.500 IS DISTORTING EXCESSIVELY.
   ELEMENT SPIRAL-1.503 IS DISTORTING EXCESSIVELY.
   ELEMENT SPIRAL-1.504 IS DISTORTING EXCESSIVELY.
   ELEMENT SPIRAL-1.505 IS DISTORTING EXCESSIVELY.
   ELEMENT SPIRAL-1.508 IS DISTORTING EXCESSIVELY.
   ELEMENT SPIRAL-1.509 IS DISTORTING EXCESSIVELY.
   ELEMENT SPIRAL-1.512 IS DISTORTING EXCESSIVELY.
   ELEMENT SPIRAL-1.515 IS DISTORTING EXCESSIVELY.
   ELEMENT SPIRAL-1.517 IS DISTORTING EXCESSIVELY.
   ELEMENT SPIRAL-1.518 IS DISTORTING EXCESSIVELY.
   ELEMENT SPIRAL-1.519 IS DISTORTING EXCESSIVELY.
   ELEMENT SPIRAL-1.520 IS DISTORTING EXCESSIVELY.
   ELEMENT SPIRAL-1.521 IS DISTORTING EXCESSIVELY.
   ELEMENT SPIRAL-1.524 IS DISTORTING EXCESSIVELY.
   ELEMENT SPIRAL-1.527 IS DISTORTING EXCESSIVELY.
   ELEMENT SPIRAL-1.529 IS DISTORTING EXCESSIVELY.
   ELEMENT SPIRAL-1.532 IS DISTORTING EXCESSIVELY.
   ELEMENT SPIRAL-1.536 IS DISTORTING EXCESSIVELY.
   ELEMENT SPIRAL-1.537 IS DISTORTING EXCESSIVELY.
   ELEMENT SPIRAL-1.540 IS DISTORTING EXCESSIVELY.
   ELEMENT SPIRAL-1.543 IS DISTORTING EXCESSIVELY.
   ELEMENT SPIRAL-1.545 IS DISTORTING EXCESSIVELY.
   ELEMENT SPIRAL-1.551 IS DISTORTING EXCESSIVELY.
   ELEMENT SPIRAL-1.552 IS DISTORTING EXCESSIVELY.
   ELEMENT SPIRAL-1.555 IS DISTORTING EXCESSIVELY.
   ELEMENT SPIRAL-1.556 IS DISTORTING EXCESSIVELY.
   ELEMENT SPIRAL-1.557 IS DISTORTING EXCESSIVELY.
   ELEMENT SPIRAL-1.558 IS DISTORTING EXCESSIVELY.
   ELEMENT SPIRAL-1.563 IS DISTORTING EXCESSIVELY.
   ELEMENT SPIRAL-1.564 IS DISTORTING EXCESSIVELY.
   ELEMENT SPIRAL-1.567 IS DISTORTING EXCESSIVELY.
   ELEMENT SPIRAL-1.569 IS DISTORTING EXCESSIVELY.
   ELEMENT SPIRAL-1.570 IS DISTORTING EXCESSIVELY.
   ELEMENT SPIRAL-1.571 IS DISTORTING EXCESSIVELY.
   ELEMENT SPIRAL-1.574 IS DISTORTING EXCESSIVELY.
   ELEMENT SPIRAL-1.575 IS DISTORTING EXCESSIVELY.
   ELEMENT SPIRAL-1.576 IS DISTORTING EXCESSIVELY.
   ELEMENT SPIRAL-1.580 IS DISTORTING EXCESSIVELY.
   ELEMENT SPIRAL-1.581 IS DISTORTING EXCESSIVELY.
   ELEMENT SPIRAL-1.583 IS DISTORTING EXCESSIVELY.
   ELEMENT SPIRAL-1.586 IS DISTORTING EXCESSIVELY.
   ELEMENT SPIRAL-1.589 IS DISTORTING EXCESSIVELY.
   ELEMENT SPIRAL-1.591 IS DISTORTING EXCESSIVELY.
   ELEMENT SPIRAL-1.592 IS DISTORTING EXCESSIVELY.
   ELEMENT SPIRAL-1.594 IS DISTORTING EXCESSIVELY.
   ELEMENT SPIRAL-1.595 IS DISTORTING EXCESSIVELY.
   ELEMENT SPIRAL-1.596 IS DISTORTING EXCESSIVELY.
   ELEMENT SPIRAL-1.599 IS DISTORTING EXCESSIVELY.
   ELEMENT SPIRAL-1.600 IS DISTORTING EXCESSIVELY.
   ELEMENT SPIRAL-1.603 IS DISTORTING EXCESSIVELY.
   ELEMENT SPIRAL-1.605 IS DISTORTING EXCESSIVELY.
   ELEMENT SPIRAL-1.606 IS DISTORTING EXCESSIVELY.
   ELEMENT SPIRAL-1.607 IS DISTORTING EXCESSIVELY.
   ELEMENT SPIRAL-1.610 IS DISTORTING EXCESSIVELY.
   ELEMENT SPIRAL-1.611 IS DISTORTING EXCESSIVELY.
   ELEMENT SPIRAL-1.612 IS DISTORTING EXCESSIVELY.
   ELEMENT SPIRAL-1.614 IS DISTORTING EXCESSIVELY.
   ELEMENT SPIRAL-1.615 IS DISTORTING EXCESSIVELY.
   ELEMENT SPIRAL-1.619 IS DISTORTING EXCESSIVELY.
   ELEMENT SPIRAL-1.620 IS DISTORTING EXCESSIVELY.
   ELEMENT SPIRAL-1.625 IS DISTORTING EXCESSIVELY.
   ELEMENT SPIRAL-1.626 IS DISTORTING EXCESSIVELY.
   ELEMENT SPIRAL-1.627 IS DISTORTING EXCESSIVELY.
   ELEMENT SPIRAL-1.628 IS DISTORTING EXCESSIVELY.
   ELEMENT SPIRAL-1.629 IS DISTORTING EXCESSIVELY.
   ELEMENT SPIRAL-1.630 IS DISTORTING EXCESSIVELY.
   ELEMENT SPIRAL-1.631 IS DISTORTING EXCESSIVELY.
   ELEMENT SPIRAL-1.632 IS DISTORTING EXCESSIVELY.
   ELEMENT SPIRAL-1.635 IS DISTORTING EXCESSIVELY.
   ELEMENT SPIRAL-1.636 IS DISTORTING EXCESSIVELY.
   ELEMENT SPIRAL-1.638 IS DISTORTING EXCESSIVELY.
   ELEMENT SPIRAL-1.640 IS DISTORTING EXCESSIVELY.
   ELEMENT SPIRAL-1.641 IS DISTORTING EXCESSIVELY.
   ELEMENT SPIRAL-1.642 IS DISTORTING EXCESSIVELY.
   ELEMENT SPIRAL-1.646 IS DISTORTING EXCESSIVELY.
   ELEMENT SPIRAL-1.650 IS DISTORTING EXCESSIVELY.
   ELEMENT SPIRAL-1.651 IS DISTORTING EXCESSIVELY.
   ELEMENT SPIRAL-1.652 IS DISTORTING EXCESSIVELY.
   ELEMENT SPIRAL-1.653 IS DISTORTING EXCESSIVELY.
   ELEMENT SPIRAL-1.654 IS DISTORTING EXCESSIVELY.
   ELEMENT SPIRAL-1.656 IS DISTORTING EXCESSIVELY.
   ELEMENT SPIRAL-1.658 IS DISTORTING EXCESSIVELY.
   ELEMENT SPIRAL-1.660 IS DISTORTING EXCESSIVELY.
   ELEMENT SPIRAL-1.663 IS DISTORTING EXCESSIVELY.
   ELEMENT SPIRAL-1.665 IS DISTORTING EXCESSIVELY.
   ELEMENT SPIRAL-1.671 IS DISTORTING EXCESSIVELY.
   ELEMENT SPIRAL-1.672 IS DISTORTING EXCESSIVELY.
   ELEMENT SPIRAL-1.675 IS DISTORTING EXCESSIVELY.
   ELEMENT SPIRAL-1.677 IS DISTORTING EXCESSIVELY.
   ELEMENT SPIRAL-1.678 IS DISTORTING EXCESSIVELY.
   ELEMENT SPIRAL-1.680 IS DISTORTING EXCESSIVELY.
   ELEMENT SPIRAL-1.683 IS DISTORTING EXCESSIVELY.
   ELEMENT SPIRAL-1.687 IS DISTORTING EXCESSIVELY.
   ELEMENT SPIRAL-1.689 IS DISTORTING EXCESSIVELY.
   ELEMENT SPIRAL-1.691 IS DISTORTING EXCESSIVELY.
   ELEMENT SPIRAL-1.694 IS DISTORTING EXCESSIVELY.
   ELEMENT SPIRAL-1.696 IS DISTORTING EXCESSIVELY.
   ELEMENT SPIRAL-1.701 IS DISTORTING EXCESSIVELY.
   ELEMENT SPIRAL-1.703 IS DISTORTING EXCESSIVELY.
   ELEMENT SPIRAL-1.704 IS DISTORTING EXCESSIVELY.
   ELEMENT SPIRAL-1.705 IS DISTORTING EXCESSIVELY.
   ELEMENT SPIRAL-1.708 IS DISTORTING EXCESSIVELY.
   ELEMENT SPIRAL-1.709 IS DISTORTING EXCESSIVELY.
   ELEMENT SPIRAL-1.714 IS DISTORTING EXCESSIVELY.
   ELEMENT SPIRAL-1.716 IS DISTORTING EXCESSIVELY.
   ELEMENT SPIRAL-1.717 IS DISTORTING EXCESSIVELY.
   ELEMENT SPIRAL-1.719 IS DISTORTING EXCESSIVELY.
   ELEMENT SPIRAL-1.722 IS DISTORTING EXCESSIVELY.
   ELEMENT SPIRAL-1.723 IS DISTORTING EXCESSIVELY.
   ELEMENT SPIRAL-1.724 IS DISTORTING EXCESSIVELY.
   ELEMENT SPIRAL-1.729 IS DISTORTING EXCESSIVELY.
   ELEMENT SPIRAL-1.730 IS DISTORTING EXCESSIVELY.
   ELEMENT SPIRAL-1.731 IS DISTORTING EXCESSIVELY.
   ELEMENT SPIRAL-1.732 IS DISTORTING EXCESSIVELY.
   ELEMENT SPIRAL-1.733 IS DISTORTING EXCESSIVELY.
   ELEMENT SPIRAL-1.734 IS DISTORTING EXCESSIVELY.
   ELEMENT SPIRAL-1.735 IS DISTORTING EXCESSIVELY.
   ELEMENT SPIRAL-1.737 IS DISTORTING EXCESSIVELY.
   ELEMENT SPIRAL-1.739 IS DISTORTING EXCESSIVELY.
   ELEMENT SPIRAL-1.740 IS DISTORTING EXCESSIVELY.
   ELEMENT SPIRAL-1.741 IS DISTORTING EXCESSIVELY.
   ELEMENT SPIRAL-1.743 IS DISTORTING EXCESSIVELY.
   ELEMENT SPIRAL-1.744 IS DISTORTING EXCESSIVELY.
   ELEMENT SPIRAL-1.745 IS DISTORTING EXCESSIVELY.
   ELEMENT SPIRAL-1.746 IS DISTORTING EXCESSIVELY.
   ELEMENT SPIRAL-1.748 IS DISTORTING EXCESSIVELY.
   ELEMENT SPIRAL-1.749 IS DISTORTING EXCESSIVELY.
   ELEMENT SPIRAL-1.751 IS DISTORTING EXCESSIVELY.
   ELEMENT SPIRAL-1.753 IS DISTORTING EXCESSIVELY.
   ELEMENT SPIRAL-1.754 IS DISTORTING EXCESSIVELY.
   ELEMENT SPIRAL-1.756 IS DISTORTING EXCESSIVELY.
   ELEMENT SPIRAL-1.758 IS DISTORTING EXCESSIVELY.
   ELEMENT SPIRAL-1.759 IS DISTORTING EXCESSIVELY.
   ELEMENT SPIRAL-1.760 IS DISTORTING EXCESSIVELY.
   ELEMENT SPIRAL-1.762 IS DISTORTING EXCESSIVELY.
   ELEMENT SPIRAL-1.765 IS DISTORTING EXCESSIVELY.
   ELEMENT SPIRAL-1.767 IS DISTORTING EXCESSIVELY.
   ELEMENT SPIRAL-1.768 IS DISTORTING EXCESSIVELY.
   ELEMENT SPIRAL-1.771 IS DISTORTING EXCESSIVELY.
   ELEMENT SPIRAL-1.772 IS DISTORTING EXCESSIVELY.
   ELEMENT SPIRAL-1.774 IS DISTORTING EXCESSIVELY.
   ELEMENT SPIRAL-1.776 IS DISTORTING EXCESSIVELY.
   ELEMENT SPIRAL-1.778 IS DISTORTING EXCESSIVELY.
   ELEMENT SPIRAL-1.782 IS DISTORTING EXCESSIVELY.
   ELEMENT SPIRAL-1.783 IS DISTORTING EXCESSIVELY.
   ELEMENT SPIRAL-1.785 IS DISTORTING EXCESSIVELY.
   ELEMENT SPIRAL-1.786 IS DISTORTING EXCESSIVELY.
   ELEMENT SPIRAL-1.792 IS DISTORTING EXCESSIVELY.
   ELEMENT SPIRAL-1.794 IS DISTORTING EXCESSIVELY.
   ELEMENT SPIRAL-1.796 IS DISTORTING EXCESSIVELY.
   ELEMENT SPIRAL-1.799 IS DISTORTING EXCESSIVELY.
   ELEMENT SPIRAL-1.802 IS DISTORTING EXCESSIVELY.
   ELEMENT SPIRAL-1.803 IS DISTORTING EXCESSIVELY.
   ELEMENT SPIRAL-1.804 IS DISTORTING EXCESSIVELY.
   ELEMENT SPIRAL-1.809 IS DISTORTING EXCESSIVELY.
   ELEMENT SPIRAL-1.813 IS DISTORTING EXCESSIVELY.
   ELEMENT SPIRAL-1.816 IS DISTORTING EXCESSIVELY.
   ELEMENT SPIRAL-1.818 IS DISTORTING EXCESSIVELY.
   ELEMENT SPIRAL-1.819 IS DISTORTING EXCESSIVELY.
   ELEMENT SPIRAL-1.820 IS DISTORTING EXCESSIVELY.
   ELEMENT SPIRAL-1.821 IS DISTORTING EXCESSIVELY.
   ELEMENT SPIRAL-1.823 IS DISTORTING EXCESSIVELY.
   ELEMENT SPIRAL-1.826 IS DISTORTING EXCESSIVELY.
   ELEMENT SPIRAL-1.827 IS DISTORTING EXCESSIVELY.
   ELEMENT SPIRAL-1.828 IS DISTORTING EXCESSIVELY.
   ELEMENT SPIRAL-1.830 IS DISTORTING EXCESSIVELY.
   ELEMENT SPIRAL-1.832 IS DISTORTING EXCESSIVELY.
   ELEMENT SPIRAL-1.835 IS DISTORTING EXCESSIVELY.
   ELEMENT SPIRAL-1.838 IS DISTORTING EXCESSIVELY.
   ELEMENT SPIRAL-1.841 IS DISTORTING EXCESSIVELY.
   ELEMENT SPIRAL-1.845 IS DISTORTING EXCESSIVELY.
   ELEMENT SPIRAL-1.846 IS DISTORTING EXCESSIVELY.
   ELEMENT SPIRAL-1.847 IS DISTORTING EXCESSIVELY.
   ELEMENT SPIRAL-1.849 IS DISTORTING EXCESSIVELY.
   ELEMENT SPIRAL-1.850 IS DISTORTING EXCESSIVELY.
   ELEMENT SPIRAL-1.852 IS DISTORTING EXCESSIVELY.
   ELEMENT SPIRAL-1.853 IS DISTORTING EXCESSIVELY.
   ELEMENT SPIRAL-1.854 IS DISTORTING EXCESSIVELY.
   ELEMENT SPIRAL-1.855 IS DISTORTING EXCESSIVELY.
   ELEMENT SPIRAL-1.857 IS DISTORTING EXCESSIVELY.
   ELEMENT SPIRAL-1.862 IS DISTORTING EXCESSIVELY.
   ELEMENT SPIRAL-1.866 IS DISTORTING EXCESSIVELY.
   ELEMENT SPIRAL-1.868 IS DISTORTING EXCESSIVELY.
   ELEMENT SPIRAL-1.869 IS DISTORTING EXCESSIVELY.
   ELEMENT SPIRAL-1.870 IS DISTORTING EXCESSIVELY.
   ELEMENT SPIRAL-1.871 IS DISTORTING EXCESSIVELY.
   ELEMENT SPIRAL-1.874 IS DISTORTING EXCESSIVELY.
   ELEMENT SPIRAL-1.878 IS DISTORTING EXCESSIVELY.
   ELEMENT SPIRAL-1.879 IS DISTORTING EXCESSIVELY.
   ELEMENT SPIRAL-1.880 IS DISTORTING EXCESSIVELY.
   ELEMENT SPIRAL-1.886 IS DISTORTING EXCESSIVELY.
   ELEMENT SPIRAL-1.888 IS DISTORTING EXCESSIVELY.
   ELEMENT SPIRAL-1.889 IS DISTORTING EXCESSIVELY.
   ELEMENT SPIRAL-1.893 IS DISTORTING EXCESSIVELY.
   ELEMENT SPIRAL-1.894 IS DISTORTING EXCESSIVELY.
   ELEMENT SPIRAL-1.897 IS DISTORTING EXCESSIVELY.
   ELEMENT SPIRAL-1.899 IS DISTORTING EXCESSIVELY.
   ELEMENT SPIRAL-1.900 IS DISTORTING EXCESSIVELY.
   ELEMENT SPIRAL-1.902 IS DISTORTING EXCESSIVELY.
   ELEMENT SPIRAL-1.903 IS DISTORTING EXCESSIVELY.
   ELEMENT SPIRAL-1.904 IS DISTORTING EXCESSIVELY.
   ELEMENT SPIRAL-1.906 IS DISTORTING EXCESSIVELY.
   ELEMENT SPIRAL-1.907 IS DISTORTING EXCESSIVELY.
   ELEMENT SPIRAL-1.908 IS DISTORTING EXCESSIVELY.
   ELEMENT SPIRAL-1.909 IS DISTORTING EXCESSIVELY.
   ELEMENT SPIRAL-1.910 IS DISTORTING EXCESSIVELY.
   ELEMENT SPIRAL-1.912 IS DISTORTING EXCESSIVELY.
   ELEMENT SPIRAL-1.916 IS DISTORTING EXCESSIVELY.
   ELEMENT SPIRAL-1.918 IS DISTORTING EXCESSIVELY.
   ELEMENT SPIRAL-1.922 IS DISTORTING EXCESSIVELY.
   ELEMENT SPIRAL-1.924 IS DISTORTING EXCESSIVELY.
   ELEMENT SPIRAL-1.925 IS DISTORTING EXCESSIVELY.
   ELEMENT SPIRAL-1.928 IS DISTORTING EXCESSIVELY.
   ELEMENT SPIRAL-1.929 IS DISTORTING EXCESSIVELY.
   ELEMENT SPIRAL-1.930 IS DISTORTING EXCESSIVELY.
   ELEMENT SPIRAL-1.931 IS DISTORTING EXCESSIVELY.
   ELEMENT SPIRAL-1.932 IS DISTORTING EXCESSIVELY.
   ELEMENT SPIRAL-1.934 IS DISTORTING EXCESSIVELY.
   ELEMENT SPIRAL-1.935 IS DISTORTING EXCESSIVELY.
   ELEMENT SPIRAL-1.936 IS DISTORTING EXCESSIVELY.
   ELEMENT SPIRAL-1.937 IS DISTORTING EXCESSIVELY.
   ELEMENT SPIRAL-1.938 IS DISTORTING EXCESSIVELY.
   ELEMENT SPIRAL-1.939 IS DISTORTING EXCESSIVELY.
   ELEMENT SPIRAL-1.940 IS DISTORTING EXCESSIVELY.
   ELEMENT SPIRAL-1.941 IS DISTORTING EXCESSIVELY.
   ELEMENT SPIRAL-1.945 IS DISTORTING EXCESSIVELY.
   ELEMENT SPIRAL-1.947 IS DISTORTING EXCESSIVELY.
   ELEMENT SPIRAL-1.950 IS DISTORTING EXCESSIVELY.
   ELEMENT SPIRAL-1.951 IS DISTORTING EXCESSIVELY.
   ELEMENT SPIRAL-1.953 IS DISTORTING EXCESSIVELY.
   ELEMENT SPIRAL-1.954 IS DISTORTING EXCESSIVELY.
   ELEMENT SPIRAL-1.955 IS DISTORTING EXCESSIVELY.
   ELEMENT SPIRAL-1.957 IS DISTORTING EXCESSIVELY.
   ELEMENT SPIRAL-1.958 IS DISTORTING EXCESSIVELY.
   ELEMENT SPIRAL-1.960 IS DISTORTING EXCESSIVELY.
   ELEMENT SPIRAL-1.961 IS DISTORTING EXCESSIVELY.
   ELEMENT SPIRAL-1.963 IS DISTORTING EXCESSIVELY.
   ELEMENT SPIRAL-1.964 IS DISTORTING EXCESSIVELY.
   ELEMENT SPIRAL-1.965 IS DISTORTING EXCESSIVELY.
   ELEMENT SPIRAL-1.966 IS DISTORTING EXCESSIVELY.
   ELEMENT SPIRAL-1.968 IS DISTORTING EXCESSIVELY.
   ELEMENT SPIRAL-1.969 IS DISTORTING EXCESSIVELY.
   ELEMENT SPIRAL-1.970 IS DISTORTING EXCESSIVELY.
   ELEMENT SPIRAL-1.971 IS DISTORTING EXCESSIVELY.
   ELEMENT SPIRAL-1.972 IS DISTORTING EXCESSIVELY.
   ELEMENT SPIRAL-1.973 IS DISTORTING EXCESSIVELY.
   ELEMENT SPIRAL-1.974 IS DISTORTING EXCESSIVELY.
   ELEMENT SPIRAL-1.975 IS DISTORTING EXCESSIVELY.
   ELEMENT SPIRAL-1.976 IS DISTORTING EXCESSIVELY.
   ELEMENT SPIRAL-1.977 IS DISTORTING EXCESSIVELY.
   ELEMENT SPIRAL-1.979 IS DISTORTING EXCESSIVELY.
   ELEMENT SPIRAL-1.982 IS DISTORTING EXCESSIVELY.
   ELEMENT SPIRAL-1.986 IS DISTORTING EXCESSIVELY.
   ELEMENT SPIRAL-1.988 IS DISTORTING EXCESSIVELY.
   ELEMENT SPIRAL-1.990 IS DISTORTING EXCESSIVELY.
   ELEMENT SPIRAL-1.991 IS DISTORTING EXCESSIVELY.
   ELEMENT SPIRAL-1.992 IS DISTORTING EXCESSIVELY.
   ELEMENT SPIRAL-1.994 IS DISTORTING EXCESSIVELY.
   ELEMENT SPIRAL-1.995 IS DISTORTING EXCESSIVELY.
   ELEMENT SPIRAL-1.996 IS DISTORTING EXCESSIVELY.
   ELEMENT SPIRAL-1.997 IS DISTORTING EXCESSIVELY.
   ELEMENT SPIRAL-1.1000 IS DISTORTING EXCESSIVELY.
   ELEMENT SPIRAL-1.1005 IS DISTORTING EXCESSIVELY.
   ELEMENT SPIRAL-1.1006 IS DISTORTING EXCESSIVELY.
   ELEMENT SPIRAL-1.1008 IS DISTORTING EXCESSIVELY.
   ELEMENT SPIRAL-1.1009 IS DISTORTING EXCESSIVELY.
   ELEMENT SPIRAL-1.1011 IS DISTORTING EXCESSIVELY.
   ELEMENT SPIRAL-1.1012 IS DISTORTING EXCESSIVELY.
   ELEMENT SPIRAL-1.1014 IS DISTORTING EXCESSIVELY.
   ELEMENT SPIRAL-1.1016 IS DISTORTING EXCESSIVELY.
   ELEMENT SPIRAL-1.1017 IS DISTORTING EXCESSIVELY.
   ELEMENT SPIRAL-1.1018 IS DISTORTING EXCESSIVELY.
   ELEMENT SPIRAL-1.1022 IS DISTORTING EXCESSIVELY.
   ELEMENT SPIRAL-1.1023 IS DISTORTING EXCESSIVELY.
   ELEMENT SPIRAL-1.1025 IS DISTORTING EXCESSIVELY.
   ELEMENT SPIRAL-1.1030 IS DISTORTING EXCESSIVELY.
   ELEMENT SPIRAL-1.1031 IS DISTORTING EXCESSIVELY.
   ELEMENT SPIRAL-1.1032 IS DISTORTING EXCESSIVELY.
   ELEMENT SPIRAL-1.1033 IS DISTORTING EXCESSIVELY.
   ELEMENT SPIRAL-1.1036 IS DISTORTING EXCESSIVELY.
   ELEMENT SPIRAL-1.1038 IS DISTORTING EXCESSIVELY.
   ELEMENT SPIRAL-1.1039 IS DISTORTING EXCESSIVELY.
   ELEMENT SPIRAL-1.1040 IS DISTORTING EXCESSIVELY.
   ELEMENT SPIRAL-1.1042 IS DISTORTING EXCESSIVELY.
   ELEMENT SPIRAL-1.1043 IS DISTORTING EXCESSIVELY.
   ELEMENT SPIRAL-1.1044 IS DISTORTING EXCESSIVELY.
   ELEMENT SPIRAL-1.1046 IS DISTORTING EXCESSIVELY.
   ELEMENT SPIRAL-1.1048 IS DISTORTING EXCESSIVELY.
   ELEMENT SPIRAL-1.1051 IS DISTORTING EXCESSIVELY.
   ELEMENT SPIRAL-1.1054 IS DISTORTING EXCESSIVELY.
   ELEMENT SPIRAL-1.1057 IS DISTORTING EXCESSIVELY.
   ELEMENT SPIRAL-1.1058 IS DISTORTING EXCESSIVELY.
   ELEMENT SPIRAL-1.1060 IS DISTORTING EXCESSIVELY.
   ELEMENT SPIRAL-1.1061 IS DISTORTING EXCESSIVELY.
   ELEMENT SPIRAL-1.1062 IS DISTORTING EXCESSIVELY.
   ELEMENT SPIRAL-1.1063 IS DISTORTING EXCESSIVELY.
   ELEMENT SPIRAL-1.1064 IS DISTORTING EXCESSIVELY.
   ELEMENT SPIRAL-1.1066 IS DISTORTING EXCESSIVELY.
   ELEMENT SPIRAL-1.1067 IS DISTORTING EXCESSIVELY.
   ELEMENT SPIRAL-1.1069 IS DISTORTING EXCESSIVELY.
   ELEMENT SPIRAL-1.1070 IS DISTORTING EXCESSIVELY.
   ELEMENT SPIRAL-1.1072 IS DISTORTING EXCESSIVELY.
   ELEMENT SPIRAL-1.1078 IS DISTORTING EXCESSIVELY.
   ELEMENT SPIRAL-1.1079 IS DISTORTING EXCESSIVELY.
   ELEMENT SPIRAL-1.1080 IS DISTORTING EXCESSIVELY.
   ELEMENT SPIRAL-1.1082 IS DISTORTING EXCESSIVELY.
   ELEMENT SPIRAL-1.1083 IS DISTORTING EXCESSIVELY.
   ELEMENT SPIRAL-1.1084 IS DISTORTING EXCESSIVELY.
   ELEMENT SPIRAL-1.1085 IS DISTORTING EXCESSIVELY.
   ELEMENT SPIRAL-1.1086 IS DISTORTING EXCESSIVELY.
   ELEMENT SPIRAL-1.1087 IS DISTORTING EXCESSIVELY.
   ELEMENT SPIRAL-1.1089 IS DISTORTING EXCESSIVELY.
   ELEMENT SPIRAL-1.1091 IS DISTORTING EXCESSIVELY.
   ELEMENT SPIRAL-1.1097 IS DISTORTING EXCESSIVELY.
   ELEMENT SPIRAL-1.1101 IS DISTORTING EXCESSIVELY.
   ELEMENT SPIRAL-1.1102 IS DISTORTING EXCESSIVELY.
   ELEMENT SPIRAL-1.1107 IS DISTORTING EXCESSIVELY.
   ELEMENT SPIRAL-1.1112 IS DISTORTING EXCESSIVELY.
   ELEMENT SPIRAL-1.1117 IS DISTORTING EXCESSIVELY.
   ELEMENT SPIRAL-1.1120 IS DISTORTING EXCESSIVELY.
   ELEMENT SPIRAL-1.1121 IS DISTORTING EXCESSIVELY.
   ELEMENT SPIRAL-1.1122 IS DISTORTING EXCESSIVELY.
   ELEMENT SPIRAL-1.1125 IS DISTORTING EXCESSIVELY.
   ELEMENT SPIRAL-1.1126 IS DISTORTING EXCESSIVELY.
   ELEMENT SPIRAL-1.1127 IS DISTORTING EXCESSIVELY.
   ELEMENT SPIRAL-1.1128 IS DISTORTING EXCESSIVELY.
   ELEMENT SPIRAL-1.1129 IS DISTORTING EXCESSIVELY.
   ELEMENT SPIRAL-1.1130 IS DISTORTING EXCESSIVELY.
   ELEMENT SPIRAL-1.1133 IS DISTORTING EXCESSIVELY.
   ELEMENT SPIRAL-1.1136 IS DISTORTING EXCESSIVELY.
   ELEMENT SPIRAL-1.1138 IS DISTORTING EXCESSIVELY.
   ELEMENT SPIRAL-1.1140 IS DISTORTING EXCESSIVELY.
   ELEMENT SPIRAL-1.1143 IS DISTORTING EXCESSIVELY.
   ELEMENT SPIRAL-1.1144 IS DISTORTING EXCESSIVELY.
   ELEMENT SPIRAL-1.1145 IS DISTORTING EXCESSIVELY.
   ELEMENT SPIRAL-1.1149 IS DISTORTING EXCESSIVELY.
   ELEMENT SPIRAL-1.1151 IS DISTORTING EXCESSIVELY.
   ELEMENT SPIRAL-1.1152 IS DISTORTING EXCESSIVELY.
   ELEMENT SPIRAL-1.1153 IS DISTORTING EXCESSIVELY.
   ELEMENT SPIRAL-1.1155 IS DISTORTING EXCESSIVELY.
   ELEMENT SPIRAL-1.1157 IS DISTORTING EXCESSIVELY.
   ELEMENT SPIRAL-1.1160 IS DISTORTING EXCESSIVELY.
   ELEMENT SPIRAL-1.1161 IS DISTORTING EXCESSIVELY.
   ELEMENT SPIRAL-1.1163 IS DISTORTING EXCESSIVELY.
   ELEMENT SPIRAL-1.1165 IS DISTORTING EXCESSIVELY.
   ELEMENT SPIRAL-1.1166 IS DISTORTING EXCESSIVELY.
   ELEMENT SPIRAL-1.1169 IS DISTORTING EXCESSIVELY.
   ELEMENT SPIRAL-1.1170 IS DISTORTING EXCESSIVELY.
   ELEMENT SPIRAL-1.1172 IS DISTORTING EXCESSIVELY.
   ELEMENT SPIRAL-1.1173 IS DISTORTING EXCESSIVELY.
   ELEMENT SPIRAL-1.1176 IS DISTORTING EXCESSIVELY.
   ELEMENT SPIRAL-1.1181 IS DISTORTING EXCESSIVELY.
   ELEMENT SPIRAL-1.1182 IS DISTORTING EXCESSIVELY.
   ELEMENT SPIRAL-1.1185 IS DISTORTING EXCESSIVELY.
   ELEMENT SPIRAL-1.1195 IS DISTORTING EXCESSIVELY.
   ELEMENT SPIRAL-1.1196 IS DISTORTING EXCESSIVELY.
   ELEMENT SPIRAL-1.1197 IS DISTORTING EXCESSIVELY.
   ELEMENT SPIRAL-1.1199 IS DISTORTING EXCESSIVELY.
   ELEMENT SPIRAL-1.1202 IS DISTORTING EXCESSIVELY.
   ELEMENT SPIRAL-1.1203 IS DISTORTING EXCESSIVELY.
   ELEMENT SPIRAL-1.1205 IS DISTORTING EXCESSIVELY.
   ELEMENT SPIRAL-1.1207 IS DISTORTING EXCESSIVELY.
   ELEMENT SPIRAL-1.1209 IS DISTORTING EXCESSIVELY.
   ELEMENT SPIRAL-1.1212 IS DISTORTING EXCESSIVELY.
   ELEMENT SPIRAL-1.1214 IS DISTORTING EXCESSIVELY.
   ELEMENT SPIRAL-1.1217 IS DISTORTING EXCESSIVELY.
   ELEMENT SPIRAL-1.1220 IS DISTORTING EXCESSIVELY.
   ELEMENT SPIRAL-1.1221 IS DISTORTING EXCESSIVELY.
   ELEMENT SPIRAL-1.1223 IS DISTORTING EXCESSIVELY.
   ELEMENT SPIRAL-1.1227 IS DISTORTING EXCESSIVELY.
   ELEMENT SPIRAL-1.1228 IS DISTORTING EXCESSIVELY.
   ELEMENT SPIRAL-1.1230 IS DISTORTING EXCESSIVELY.
   ELEMENT SPIRAL-1.1232 IS DISTORTING EXCESSIVELY.
   ELEMENT SPIRAL-1.1233 IS DISTORTING EXCESSIVELY.
   ELEMENT SPIRAL-1.1234 IS DISTORTING EXCESSIVELY.
   ELEMENT SPIRAL-1.1235 IS DISTORTING EXCESSIVELY.
   ELEMENT SPIRAL-1.1241 IS DISTORTING EXCESSIVELY.
   ELEMENT SPIRAL-1.1244 IS DISTORTING EXCESSIVELY.
   ELEMENT SPIRAL-1.1245 IS DISTORTING EXCESSIVELY.
   ELEMENT SPIRAL-1.1246 IS DISTORTING EXCESSIVELY.
   ELEMENT SPIRAL-1.1248 IS DISTORTING EXCESSIVELY.
   ELEMENT SPIRAL-1.1250 IS DISTORTING EXCESSIVELY.
   ELEMENT SPIRAL-1.1252 IS DISTORTING EXCESSIVELY.
   ELEMENT SPIRAL-1.1254 IS DISTORTING EXCESSIVELY.
   ELEMENT SPIRAL-1.1260 IS DISTORTING EXCESSIVELY.
   ELEMENT SPIRAL-1.1261 IS DISTORTING EXCESSIVELY.
   ELEMENT SPIRAL-1.1262 IS DISTORTING EXCESSIVELY.
   ELEMENT SPIRAL-1.1263 IS DISTORTING EXCESSIVELY.
   ELEMENT SPIRAL-1.1266 IS DISTORTING EXCESSIVELY.
   ELEMENT SPIRAL-1.1270 IS DISTORTING EXCESSIVELY.
   ELEMENT SPIRAL-1.1274 IS DISTORTING EXCESSIVELY.
   ELEMENT SPIRAL-1.1276 IS DISTORTING EXCESSIVELY.
   ELEMENT SPIRAL-1.1278 IS DISTORTING EXCESSIVELY.
   ELEMENT SPIRAL-1.1279 IS DISTORTING EXCESSIVELY.
   ELEMENT SPIRAL-1.1280 IS DISTORTING EXCESSIVELY.
   ELEMENT SPIRAL-1.1283 IS DISTORTING EXCESSIVELY.
   ELEMENT SPIRAL-1.1284 IS DISTORTING EXCESSIVELY.
   ELEMENT SPIRAL-1.1285 IS DISTORTING EXCESSIVELY.
   ELEMENT SPIRAL-1.1288 IS DISTORTING EXCESSIVELY.
   ELEMENT SPIRAL-1.1292 IS DISTORTING EXCESSIVELY.
   ELEMENT SPIRAL-1.1296 IS DISTORTING EXCESSIVELY.
   ELEMENT SPIRAL-1.1298 IS DISTORTING EXCESSIVELY.
   ELEMENT SPIRAL-1.1300 IS DISTORTING EXCESSIVELY.
   ELEMENT SPIRAL-1.1301 IS DISTORTING EXCESSIVELY.
   ELEMENT SPIRAL-1.1304 IS DISTORTING EXCESSIVELY.
   ELEMENT SPIRAL-1.1306 IS DISTORTING EXCESSIVELY.
   ELEMENT SPIRAL-1.1307 IS DISTORTING EXCESSIVELY.
   ELEMENT SPIRAL-1.1308 IS DISTORTING EXCESSIVELY.
   ELEMENT SPIRAL-1.1309 IS DISTORTING EXCESSIVELY.
   ELEMENT SPIRAL-1.1310 IS DISTORTING EXCESSIVELY.
   ELEMENT SPIRAL-1.1315 IS DISTORTING EXCESSIVELY.
   ELEMENT SPIRAL-1.1317 IS DISTORTING EXCESSIVELY.
   ELEMENT SPIRAL-1.1318 IS DISTORTING EXCESSIVELY.
   ELEMENT SPIRAL-1.1321 IS DISTORTING EXCESSIVELY.
   ELEMENT SPIRAL-1.1323 IS DISTORTING EXCESSIVELY.
   ELEMENT SPIRAL-1.1326 IS DISTORTING EXCESSIVELY.
   ELEMENT SPIRAL-1.1327 IS DISTORTING EXCESSIVELY.
   ELEMENT SPIRAL-1.1328 IS DISTORTING EXCESSIVELY.
   ELEMENT SPIRAL-1.1329 IS DISTORTING EXCESSIVELY.
   ELEMENT SPIRAL-1.1331 IS DISTORTING EXCESSIVELY.
   ELEMENT SPIRAL-1.1333 IS DISTORTING EXCESSIVELY.
   ELEMENT SPIRAL-1.1334 IS DISTORTING EXCESSIVELY.
   ELEMENT SPIRAL-1.1335 IS DISTORTING EXCESSIVELY.
   ELEMENT SPIRAL-1.1341 IS DISTORTING EXCESSIVELY.
   ELEMENT SPIRAL-1.1342 IS DISTORTING EXCESSIVELY.
   ELEMENT SPIRAL-1.1343 IS DISTORTING EXCESSIVELY.
   ELEMENT SPIRAL-1.1349 IS DISTORTING EXCESSIVELY.
   ELEMENT SPIRAL-1.1350 IS DISTORTING EXCESSIVELY.
   ELEMENT SPIRAL-1.1351 IS DISTORTING EXCESSIVELY.
   ELEMENT SPIRAL-1.1352 IS DISTORTING EXCESSIVELY.
   ELEMENT SPIRAL-1.1353 IS DISTORTING EXCESSIVELY.
   ELEMENT SPIRAL-1.1354 IS DISTORTING EXCESSIVELY.
   ELEMENT SPIRAL-1.1357 IS DISTORTING EXCESSIVELY.
   ELEMENT SPIRAL-1.1358 IS DISTORTING EXCESSIVELY.
   ELEMENT SPIRAL-1.1361 IS DISTORTING EXCESSIVELY.
   ELEMENT SPIRAL-1.1362 IS DISTORTING EXCESSIVELY.
   ELEMENT SPIRAL-1.1363 IS DISTORTING EXCESSIVELY.
   ELEMENT SPIRAL-1.1364 IS DISTORTING EXCESSIVELY.
   ELEMENT SPIRAL-1.1365 IS DISTORTING EXCESSIVELY.
   ELEMENT SPIRAL-1.1366 IS DISTORTING EXCESSIVELY.
   ELEMENT SPIRAL-1.1367 IS DISTORTING EXCESSIVELY.
   ELEMENT SPIRAL-1.1368 IS DISTORTING EXCESSIVELY.
   ELEMENT SPIRAL-1.1371 IS DISTORTING EXCESSIVELY.
   ELEMENT SPIRAL-1.1377 IS DISTORTING EXCESSIVELY.
   ELEMENT SPIRAL-1.1379 IS DISTORTING EXCESSIVELY.
   ELEMENT SPIRAL-1.1392 IS DISTORTING EXCESSIVELY.
   ELEMENT SPIRAL-1.1393 IS DISTORTING EXCESSIVELY.
   ELEMENT SPIRAL-1.1394 IS DISTORTING EXCESSIVELY.
   ELEMENT SPIRAL-1.1395 IS DISTORTING EXCESSIVELY.
   ELEMENT SPIRAL-1.1396 IS DISTORTING EXCESSIVELY.
   ELEMENT SPIRAL-1.1397 IS DISTORTING EXCESSIVELY.
   ELEMENT SPIRAL-1.1398 IS DISTORTING EXCESSIVELY.
   ELEMENT SPIRAL-1.1399 IS DISTORTING EXCESSIVELY.
   ELEMENT SPIRAL-1.1401 IS DISTORTING EXCESSIVELY.
   ELEMENT SPIRAL-1.1402 IS DISTORTING EXCESSIVELY.
   ELEMENT SPIRAL-1.1408 IS DISTORTING EXCESSIVELY.
   ELEMENT SPIRAL-1.1410 IS DISTORTING EXCESSIVELY.
   ELEMENT SPIRAL-1.1411 IS DISTORTING EXCESSIVELY.
   ELEMENT SPIRAL-1.1412 IS DISTORTING EXCESSIVELY.
   ELEMENT SPIRAL-1.1413 IS DISTORTING EXCESSIVELY.
   ELEMENT SPIRAL-1.1415 IS DISTORTING EXCESSIVELY.
   ELEMENT SPIRAL-1.1417 IS DISTORTING EXCESSIVELY.
   ELEMENT SPIRAL-1.1419 IS DISTORTING EXCESSIVELY.
   ELEMENT SPIRAL-1.1424 IS DISTORTING EXCESSIVELY.
   ELEMENT SPIRAL-1.1427 IS DISTORTING EXCESSIVELY.
   ELEMENT SPIRAL-1.1428 IS DISTORTING EXCESSIVELY.
   ELEMENT SPIRAL-1.1429 IS DISTORTING EXCESSIVELY.
   ELEMENT SPIRAL-1.1430 IS DISTORTING EXCESSIVELY.
   ELEMENT SPIRAL-1.1431 IS DISTORTING EXCESSIVELY.
   ELEMENT SPIRAL-1.1432 IS DISTORTING EXCESSIVELY.
   ELEMENT SPIRAL-1.1435 IS DISTORTING EXCESSIVELY.
   ELEMENT SPIRAL-1.1436 IS DISTORTING EXCESSIVELY.
   ELEMENT SPIRAL-1.1437 IS DISTORTING EXCESSIVELY.
   ELEMENT SPIRAL-1.1442 IS DISTORTING EXCESSIVELY.
   ELEMENT SPIRAL-1.1443 IS DISTORTING EXCESSIVELY.
   ELEMENT SPIRAL-1.1444 IS DISTORTING EXCESSIVELY.
   ELEMENT SPIRAL-1.1446 IS DISTORTING EXCESSIVELY.
   ELEMENT SPIRAL-1.1447 IS DISTORTING EXCESSIVELY.
   ELEMENT SPIRAL-1.1450 IS DISTORTING EXCESSIVELY.
   ELEMENT SPIRAL-1.1452 IS DISTORTING EXCESSIVELY.
   ELEMENT SPIRAL-1.1453 IS DISTORTING EXCESSIVELY.
   ELEMENT SPIRAL-1.1454 IS DISTORTING EXCESSIVELY.
   ELEMENT SPIRAL-1.1455 IS DISTORTING EXCESSIVELY.
   ELEMENT SPIRAL-1.1456 IS DISTORTING EXCESSIVELY.
   ELEMENT SPIRAL-1.1458 IS DISTORTING EXCESSIVELY.
   ELEMENT SPIRAL-1.1459 IS DISTORTING EXCESSIVELY.
   ELEMENT SPIRAL-1.1461 IS DISTORTING EXCESSIVELY.
   ELEMENT SPIRAL-1.1462 IS DISTORTING EXCESSIVELY.
   ELEMENT SPIRAL-1.1464 IS DISTORTING EXCESSIVELY.
   ELEMENT SPIRAL-1.1466 IS DISTORTING EXCESSIVELY.
   ELEMENT SPIRAL-1.1468 IS DISTORTING EXCESSIVELY.
   ELEMENT SPIRAL-1.1469 IS DISTORTING EXCESSIVELY.
   ELEMENT SPIRAL-1.1470 IS DISTORTING EXCESSIVELY.
   ELEMENT SPIRAL-1.1471 IS DISTORTING EXCESSIVELY.
   ELEMENT SPIRAL-1.1474 IS DISTORTING EXCESSIVELY.
   ELEMENT SPIRAL-1.1476 IS DISTORTING EXCESSIVELY.
   ELEMENT SPIRAL-1.1477 IS DISTORTING EXCESSIVELY.
   ELEMENT SPIRAL-1.1479 IS DISTORTING EXCESSIVELY.
   ELEMENT SPIRAL-1.1481 IS DISTORTING EXCESSIVELY.
   ELEMENT SPIRAL-1.1482 IS DISTORTING EXCESSIVELY.
   ELEMENT SPIRAL-1.1484 IS DISTORTING EXCESSIVELY.
   ELEMENT SPIRAL-1.1485 IS DISTORTING EXCESSIVELY.
   ELEMENT SPIRAL-1.1487 IS DISTORTING EXCESSIVELY.
   ELEMENT SPIRAL-1.1488 IS DISTORTING EXCESSIVELY.
   ELEMENT SPIRAL-1.1490 IS DISTORTING EXCESSIVELY.
   ELEMENT SPIRAL-1.1493 IS DISTORTING EXCESSIVELY.
   ELEMENT SPIRAL-1.1494 IS DISTORTING EXCESSIVELY.
   ELEMENT SPIRAL-1.1496 IS DISTORTING EXCESSIVELY.
   ELEMENT SPIRAL-1.1498 IS DISTORTING EXCESSIVELY.
   ELEMENT SPIRAL-1.1502 IS DISTORTING EXCESSIVELY.
   ELEMENT SPIRAL-1.1506 IS DISTORTING EXCESSIVELY.
   ELEMENT SPIRAL-1.1507 IS DISTORTING EXCESSIVELY.
   ELEMENT SPIRAL-1.1508 IS DISTORTING EXCESSIVELY.
   ELEMENT SPIRAL-1.1510 IS DISTORTING EXCESSIVELY.
   ELEMENT SPIRAL-1.1511 IS DISTORTING EXCESSIVELY.
   ELEMENT SPIRAL-1.1512 IS DISTORTING EXCESSIVELY.
   ELEMENT SPIRAL-1.1513 IS DISTORTING EXCESSIVELY.
   ELEMENT SPIRAL-1.1514 IS DISTORTING EXCESSIVELY.
   ELEMENT SPIRAL-1.1515 IS DISTORTING EXCESSIVELY.
   ELEMENT SPIRAL-1.1516 IS DISTORTING EXCESSIVELY.
   ELEMENT SPIRAL-1.1518 IS DISTORTING EXCESSIVELY.
   ELEMENT SPIRAL-1.1519 IS DISTORTING EXCESSIVELY.
   ELEMENT SPIRAL-1.1520 IS DISTORTING EXCESSIVELY.
   ELEMENT SPIRAL-1.1525 IS DISTORTING EXCESSIVELY.
   ELEMENT SPIRAL-1.1526 IS DISTORTING EXCESSIVELY.
   ELEMENT SPIRAL-1.1528 IS DISTORTING EXCESSIVELY.
   ELEMENT SPIRAL-1.1530 IS DISTORTING EXCESSIVELY.
   ELEMENT SPIRAL-1.1532 IS DISTORTING EXCESSIVELY.
   ELEMENT SPIRAL-1.1534 IS DISTORTING EXCESSIVELY.
   ELEMENT SPIRAL-1.1536 IS DISTORTING EXCESSIVELY.
   ELEMENT SPIRAL-1.1538 IS DISTORTING EXCESSIVELY.
   ELEMENT SPIRAL-1.1539 IS DISTORTING EXCESSIVELY.
   ELEMENT SPIRAL-1.1540 IS DISTORTING EXCESSIVELY.
   ELEMENT SPIRAL-1.1543 IS DISTORTING EXCESSIVELY.
   ELEMENT SPIRAL-1.1545 IS DISTORTING EXCESSIVELY.
   ELEMENT SPIRAL-1.1546 IS DISTORTING EXCESSIVELY.
   ELEMENT SPIRAL-1.1547 IS DISTORTING EXCESSIVELY.
   ELEMENT SPIRAL-1.1548 IS DISTORTING EXCESSIVELY.
   ELEMENT SPIRAL-1.1549 IS DISTORTING EXCESSIVELY.
   ELEMENT SPIRAL-1.1550 IS DISTORTING EXCESSIVELY.
   ELEMENT SPIRAL-1.1553 IS DISTORTING EXCESSIVELY.
   ELEMENT SPIRAL-1.1554 IS DISTORTING EXCESSIVELY.
   ELEMENT SPIRAL-1.1555 IS DISTORTING EXCESSIVELY.
   ELEMENT SPIRAL-1.1556 IS DISTORTING EXCESSIVELY.
   ELEMENT SPIRAL-1.1558 IS DISTORTING EXCESSIVELY.
   ELEMENT SPIRAL-1.1562 IS DISTORTING EXCESSIVELY.
   ELEMENT SPIRAL-1.1564 IS DISTORTING EXCESSIVELY.
   ELEMENT SPIRAL-1.1565 IS DISTORTING EXCESSIVELY.
   ELEMENT SPIRAL-1.1566 IS DISTORTING EXCESSIVELY.
   ELEMENT SPIRAL-1.1567 IS DISTORTING EXCESSIVELY.
   ELEMENT SPIRAL-1.1568 IS DISTORTING EXCESSIVELY.
   ELEMENT SPIRAL-1.1569 IS DISTORTING EXCESSIVELY.
   ELEMENT SPIRAL-1.1570 IS DISTORTING EXCESSIVELY.
   ELEMENT SPIRAL-1.1571 IS DISTORTING EXCESSIVELY.
   ELEMENT SPIRAL-1.1572 IS DISTORTING EXCESSIVELY.
   ELEMENT SPIRAL-1.1573 IS DISTORTING EXCESSIVELY.
   ELEMENT SPIRAL-1.1577 IS DISTORTING EXCESSIVELY.
   ELEMENT SPIRAL-1.1579 IS DISTORTING EXCESSIVELY.
   ELEMENT SPIRAL-1.1580 IS DISTORTING EXCESSIVELY.
   ELEMENT SPIRAL-1.1584 IS DISTORTING EXCESSIVELY.
   ELEMENT SPIRAL-1.1586 IS DISTORTING EXCESSIVELY.
   ELEMENT SPIRAL-1.1587 IS DISTORTING EXCESSIVELY.
   ELEMENT SPIRAL-1.1588 IS DISTORTING EXCESSIVELY.
   ELEMENT SPIRAL-1.1589 IS DISTORTING EXCESSIVELY.
   ELEMENT SPIRAL-1.1594 IS DISTORTING EXCESSIVELY.
   ELEMENT SPIRAL-1.1595 IS DISTORTING EXCESSIVELY.
   ELEMENT SPIRAL-1.1598 IS DISTORTING EXCESSIVELY.
   ELEMENT SPIRAL-1.1599 IS DISTORTING EXCESSIVELY.
   ELEMENT SPIRAL-1.1602 IS DISTORTING EXCESSIVELY.
   ELEMENT SPIRAL-1.1609 IS DISTORTING EXCESSIVELY.
   ELEMENT SPIRAL-1.1610 IS DISTORTING EXCESSIVELY.
   ELEMENT SPIRAL-1.1613 IS DISTORTING EXCESSIVELY.
   ELEMENT SPIRAL-1.1614 IS DISTORTING EXCESSIVELY.
   ELEMENT SPIRAL-1.1615 IS DISTORTING EXCESSIVELY.
   ELEMENT SPIRAL-1.1617 IS DISTORTING EXCESSIVELY.
   ELEMENT SPIRAL-1.1619 IS DISTORTING EXCESSIVELY.
   ELEMENT SPIRAL-1.1621 IS DISTORTING EXCESSIVELY.
   ELEMENT SPIRAL-1.1623 IS DISTORTING EXCESSIVELY.
   ELEMENT SPIRAL-1.1624 IS DISTORTING EXCESSIVELY.
   ELEMENT SPIRAL-1.1626 IS DISTORTING EXCESSIVELY.
   ELEMENT SPIRAL-1.1627 IS DISTORTING EXCESSIVELY.
   ELEMENT SPIRAL-1.1629 IS DISTORTING EXCESSIVELY.
   ELEMENT SPIRAL-1.1631 IS DISTORTING EXCESSIVELY.
   ELEMENT SPIRAL-1.1632 IS DISTORTING EXCESSIVELY.
   ELEMENT SPIRAL-1.1633 IS DISTORTING EXCESSIVELY.
   ELEMENT SPIRAL-1.1634 IS DISTORTING EXCESSIVELY.
   ELEMENT SPIRAL-1.1635 IS DISTORTING EXCESSIVELY.
   ELEMENT SPIRAL-1.1636 IS DISTORTING EXCESSIVELY.
   ELEMENT SPIRAL-1.1637 IS DISTORTING EXCESSIVELY.
   ELEMENT SPIRAL-1.1639 IS DISTORTING EXCESSIVELY.
   ELEMENT SPIRAL-1.1640 IS DISTORTING EXCESSIVELY.
   ELEMENT SPIRAL-1.1641 IS DISTORTING EXCESSIVELY.
   ELEMENT SPIRAL-1.1646 IS DISTORTING EXCESSIVELY.
   ELEMENT SPIRAL-1.1647 IS DISTORTING EXCESSIVELY.
   ELEMENT SPIRAL-1.1650 IS DISTORTING EXCESSIVELY.
   ELEMENT SPIRAL-1.1653 IS DISTORTING EXCESSIVELY.
   ELEMENT SPIRAL-1.1655 IS DISTORTING EXCESSIVELY.
   ELEMENT SPIRAL-1.1656 IS DISTORTING EXCESSIVELY.
   ELEMENT SPIRAL-1.1657 IS DISTORTING EXCESSIVELY.
   ELEMENT SPIRAL-1.1659 IS DISTORTING EXCESSIVELY.
   ELEMENT SPIRAL-1.1660 IS DISTORTING EXCESSIVELY.
   ELEMENT SPIRAL-1.1661 IS DISTORTING EXCESSIVELY.
   ELEMENT SPIRAL-1.1664 IS DISTORTING EXCESSIVELY.
   ELEMENT SPIRAL-1.1665 IS DISTORTING EXCESSIVELY.
   ELEMENT SPIRAL-1.1666 IS DISTORTING EXCESSIVELY.
   ELEMENT SPIRAL-1.1667 IS DISTORTING EXCESSIVELY.
   ELEMENT SPIRAL-1.1669 IS DISTORTING EXCESSIVELY.
   ELEMENT SPIRAL-1.1671 IS DISTORTING EXCESSIVELY.
   ELEMENT SPIRAL-1.1673 IS DISTORTING EXCESSIVELY.
   ELEMENT SPIRAL-1.1674 IS DISTORTING EXCESSIVELY.
   ELEMENT SPIRAL-1.1678 IS DISTORTING EXCESSIVELY.
   ELEMENT SPIRAL-1.1680 IS DISTORTING EXCESSIVELY.
   ELEMENT SPIRAL-1.1681 IS DISTORTING EXCESSIVELY.
   ELEMENT SPIRAL-1.1683 IS DISTORTING EXCESSIVELY.
   ELEMENT SPIRAL-1.1684 IS DISTORTING EXCESSIVELY.
   ELEMENT SPIRAL-1.1686 IS DISTORTING EXCESSIVELY.
   ELEMENT SPIRAL-1.1687 IS DISTORTING EXCESSIVELY.
   ELEMENT SPIRAL-1.1688 IS DISTORTING EXCESSIVELY.
   ELEMENT SPIRAL-1.1689 IS DISTORTING EXCESSIVELY.
   ELEMENT SPIRAL-1.1694 IS DISTORTING EXCESSIVELY.
   ELEMENT SPIRAL-1.1696 IS DISTORTING EXCESSIVELY.
   ELEMENT SPIRAL-1.1699 IS DISTORTING EXCESSIVELY.
   ELEMENT SPIRAL-1.1700 IS DISTORTING EXCESSIVELY.
   ELEMENT SPIRAL-1.1701 IS DISTORTING EXCESSIVELY.
   ELEMENT SPIRAL-1.1702 IS DISTORTING EXCESSIVELY.
   ELEMENT SPIRAL-1.1704 IS DISTORTING EXCESSIVELY.
   ELEMENT SPIRAL-1.1707 IS DISTORTING EXCESSIVELY.
   ELEMENT SPIRAL-1.1711 IS DISTORTING EXCESSIVELY.
   ELEMENT SPIRAL-1.1714 IS DISTORTING EXCESSIVELY.
   ELEMENT SPIRAL-1.1718 IS DISTORTING EXCESSIVELY.
   ELEMENT SPIRAL-1.1720 IS DISTORTING EXCESSIVELY.
   ELEMENT SPIRAL-1.1721 IS DISTORTING EXCESSIVELY.
   ELEMENT SPIRAL-1.1723 IS DISTORTING EXCESSIVELY.
   ELEMENT SPIRAL-1.1724 IS DISTORTING EXCESSIVELY.
   ELEMENT SPIRAL-1.1727 IS DISTORTING EXCESSIVELY.
   ELEMENT SPIRAL-1.1729 IS DISTORTING EXCESSIVELY.
   ELEMENT SPIRAL-1.1730 IS DISTORTING EXCESSIVELY.
   ELEMENT SPIRAL-1.1731 IS DISTORTING EXCESSIVELY.
   ELEMENT SPIRAL-1.1733 IS DISTORTING EXCESSIVELY.
   ELEMENT SPIRAL-1.1736 IS DISTORTING EXCESSIVELY.
   ELEMENT SPIRAL-1.1738 IS DISTORTING EXCESSIVELY.
   ELEMENT SPIRAL-1.1740 IS DISTORTING EXCESSIVELY.
   ELEMENT SPIRAL-1.1741 IS DISTORTING EXCESSIVELY.
   ELEMENT SPIRAL-1.1745 IS DISTORTING EXCESSIVELY.
   ELEMENT SPIRAL-1.1746 IS DISTORTING EXCESSIVELY.
   ELEMENT SPIRAL-1.1747 IS DISTORTING EXCESSIVELY.
   ELEMENT SPIRAL-1.1748 IS DISTORTING EXCESSIVELY.
   ELEMENT SPIRAL-1.1749 IS DISTORTING EXCESSIVELY.
   ELEMENT SPIRAL-1.1754 IS DISTORTING EXCESSIVELY.
   ELEMENT SPIRAL-1.1755 IS DISTORTING EXCESSIVELY.
   ELEMENT SPIRAL-1.1756 IS DISTORTING EXCESSIVELY.
   ELEMENT SPIRAL-1.1763 IS DISTORTING EXCESSIVELY.
   ELEMENT SPIRAL-1.1764 IS DISTORTING EXCESSIVELY.
   ELEMENT SPIRAL-1.1765 IS DISTORTING EXCESSIVELY.
   ELEMENT SPIRAL-1.1766 IS DISTORTING EXCESSIVELY.
   ELEMENT SPIRAL-1.1768 IS DISTORTING EXCESSIVELY.
   ELEMENT SPIRAL-1.1771 IS DISTORTING EXCESSIVELY.
   ELEMENT SPIRAL-1.1772 IS DISTORTING EXCESSIVELY.
   ELEMENT SPIRAL-1.1776 IS DISTORTING EXCESSIVELY.
   ELEMENT SPIRAL-1.1778 IS DISTORTING EXCESSIVELY.
   ELEMENT SPIRAL-1.1779 IS DISTORTING EXCESSIVELY.
   ELEMENT SPIRAL-1.1783 IS DISTORTING EXCESSIVELY.
   ELEMENT SPIRAL-1.1785 IS DISTORTING EXCESSIVELY.
   ELEMENT SPIRAL-1.1786 IS DISTORTING EXCESSIVELY.
   ELEMENT SPIRAL-1.1787 IS DISTORTING EXCESSIVELY.
   ELEMENT SPIRAL-1.1794 IS DISTORTING EXCESSIVELY.
   ELEMENT SPIRAL-1.1795 IS DISTORTING EXCESSIVELY.
   ELEMENT SPIRAL-1.1799 IS DISTORTING EXCESSIVELY.
   ELEMENT SPIRAL-1.1804 IS DISTORTING EXCESSIVELY.
   ELEMENT SPIRAL-1.1806 IS DISTORTING EXCESSIVELY.
   ELEMENT SPIRAL-1.1809 IS DISTORTING EXCESSIVELY.
   ELEMENT SPIRAL-1.1811 IS DISTORTING EXCESSIVELY.
   ELEMENT SPIRAL-1.1817 IS DISTORTING EXCESSIVELY.
   ELEMENT SPIRAL-1.1818 IS DISTORTING EXCESSIVELY.
   ELEMENT SPIRAL-1.1822 IS DISTORTING EXCESSIVELY.
   ELEMENT SPIRAL-1.1825 IS DISTORTING EXCESSIVELY.
   ELEMENT SPIRAL-1.1826 IS DISTORTING EXCESSIVELY.
   ELEMENT SPIRAL-1.1828 IS DISTORTING EXCESSIVELY.
   ELEMENT SPIRAL-1.1829 IS DISTORTING EXCESSIVELY.
   ELEMENT SPIRAL-1.1834 IS DISTORTING EXCESSIVELY.
   ELEMENT SPIRAL-1.1836 IS DISTORTING EXCESSIVELY.
   ELEMENT SPIRAL-1.1837 IS DISTORTING EXCESSIVELY.
   ELEMENT SPIRAL-1.1838 IS DISTORTING EXCESSIVELY.
   ELEMENT SPIRAL-1.1840 IS DISTORTING EXCESSIVELY.
   ELEMENT SPIRAL-1.1841 IS DISTORTING EXCESSIVELY.
   ELEMENT SPIRAL-1.1843 IS DISTORTING EXCESSIVELY.
   ELEMENT SPIRAL-1.1844 IS DISTORTING EXCESSIVELY.
   ELEMENT SPIRAL-1.1845 IS DISTORTING EXCESSIVELY.
   ELEMENT SPIRAL-1.1850 IS DISTORTING EXCESSIVELY.
   ELEMENT SPIRAL-1.1851 IS DISTORTING EXCESSIVELY.
   ELEMENT SPIRAL-1.1852 IS DISTORTING EXCESSIVELY.
   ELEMENT SPIRAL-1.1854 IS DISTORTING EXCESSIVELY.
   ELEMENT SPIRAL-1.1855 IS DISTORTING EXCESSIVELY.
   ELEMENT SPIRAL-1.1856 IS DISTORTING EXCESSIVELY.
   ELEMENT SPIRAL-1.1859 IS DISTORTING EXCESSIVELY.
   ELEMENT SPIRAL-1.1860 IS DISTORTING EXCESSIVELY.
   ELEMENT SPIRAL-1.1862 IS DISTORTING EXCESSIVELY.
   ELEMENT SPIRAL-1.1863 IS DISTORTING EXCESSIVELY.
   ELEMENT SPIRAL-1.1864 IS DISTORTING EXCESSIVELY.
   ELEMENT SPIRAL-1.1868 IS DISTORTING EXCESSIVELY.
   ELEMENT SPIRAL-1.1869 IS DISTORTING EXCESSIVELY.
   ELEMENT SPIRAL-1.1871 IS DISTORTING EXCESSIVELY.
   ELEMENT SPIRAL-1.1873 IS DISTORTING EXCESSIVELY.
   ELEMENT SPIRAL-1.1876 IS DISTORTING EXCESSIVELY.
   ELEMENT SPIRAL-1.1879 IS DISTORTING EXCESSIVELY.
   ELEMENT SPIRAL-1.1881 IS DISTORTING EXCESSIVELY.
   ELEMENT SPIRAL-1.1883 IS DISTORTING EXCESSIVELY.
   ELEMENT SPIRAL-1.1887 IS DISTORTING EXCESSIVELY.
   ELEMENT SPIRAL-1.1888 IS DISTORTING EXCESSIVELY.
   ELEMENT SPIRAL-1.1890 IS DISTORTING EXCESSIVELY.
   ELEMENT SPIRAL-1.1892 IS DISTORTING EXCESSIVELY.
   ELEMENT SPIRAL-1.1893 IS DISTORTING EXCESSIVELY.
   ELEMENT SPIRAL-1.1894 IS DISTORTING EXCESSIVELY.
   ELEMENT SPIRAL-1.1896 IS DISTORTING EXCESSIVELY.
   ELEMENT SPIRAL-1.1898 IS DISTORTING EXCESSIVELY.
   ELEMENT SPIRAL-1.1902 IS DISTORTING EXCESSIVELY.
   ELEMENT SPIRAL-1.1904 IS DISTORTING EXCESSIVELY.
   ELEMENT SPIRAL-1.1905 IS DISTORTING EXCESSIVELY.
   ELEMENT SPIRAL-1.1907 IS DISTORTING EXCESSIVELY.
   ELEMENT SPIRAL-1.1911 IS DISTORTING EXCESSIVELY.
   ELEMENT SPIRAL-1.1918 IS DISTORTING EXCESSIVELY.
   ELEMENT SPIRAL-1.1920 IS DISTORTING EXCESSIVELY.
   ELEMENT SPIRAL-1.1922 IS DISTORTING EXCESSIVELY.
   ELEMENT SPIRAL-1.1923 IS DISTORTING EXCESSIVELY.
   ELEMENT SPIRAL-1.1924 IS DISTORTING EXCESSIVELY.
   ELEMENT SPIRAL-1.1925 IS DISTORTING EXCESSIVELY.
   ELEMENT SPIRAL-1.1927 IS DISTORTING EXCESSIVELY.
   ELEMENT SPIRAL-1.1929 IS DISTORTING EXCESSIVELY.
   ELEMENT SPIRAL-1.1932 IS DISTORTING EXCESSIVELY.
   ELEMENT SPIRAL-1.1934 IS DISTORTING EXCESSIVELY.
   ELEMENT SPIRAL-1.1935 IS DISTORTING EXCESSIVELY.
   ELEMENT SPIRAL-1.1938 IS DISTORTING EXCESSIVELY.
   ELEMENT SPIRAL-1.1940 IS DISTORTING EXCESSIVELY.
   ELEMENT SPIRAL-1.1942 IS DISTORTING EXCESSIVELY.
   ELEMENT SPIRAL-1.1948 IS DISTORTING EXCESSIVELY.
   ELEMENT SPIRAL-1.1949 IS DISTORTING EXCESSIVELY.
   ELEMENT SPIRAL-1.1950 IS DISTORTING EXCESSIVELY.
   ELEMENT SPIRAL-1.1951 IS DISTORTING EXCESSIVELY.
   ELEMENT SPIRAL-1.1954 IS DISTORTING EXCESSIVELY.
   ELEMENT SPIRAL-1.1957 IS DISTORTING EXCESSIVELY.
   ELEMENT SPIRAL-1.1958 IS DISTORTING EXCESSIVELY.
   ELEMENT SPIRAL-1.1960 IS DISTORTING EXCESSIVELY.
   ELEMENT SPIRAL-1.1961 IS DISTORTING EXCESSIVELY.
   ELEMENT SPIRAL-1.1964 IS DISTORTING EXCESSIVELY.
   ELEMENT SPIRAL-1.1966 IS DISTORTING EXCESSIVELY.
   ELEMENT SPIRAL-1.1967 IS DISTORTING EXCESSIVELY.
   ELEMENT SPIRAL-1.1969 IS DISTORTING EXCESSIVELY.
   ELEMENT SPIRAL-1.1970 IS DISTORTING EXCESSIVELY.
   ELEMENT SPIRAL-1.1971 IS DISTORTING EXCESSIVELY.
   ELEMENT SPIRAL-1.1973 IS DISTORTING EXCESSIVELY.
   ELEMENT SPIRAL-1.1974 IS DISTORTING EXCESSIVELY.
   ELEMENT SPIRAL-1.1976 IS DISTORTING EXCESSIVELY.
   ELEMENT SPIRAL-1.1977 IS DISTORTING EXCESSIVELY.
   ELEMENT SPIRAL-1.1979 IS DISTORTING EXCESSIVELY.
   ELEMENT SPIRAL-1.1982 IS DISTORTING EXCESSIVELY.
   ELEMENT SPIRAL-1.1984 IS DISTORTING EXCESSIVELY.
   ELEMENT SPIRAL-1.1986 IS DISTORTING EXCESSIVELY.
   ELEMENT SPIRAL-1.1987 IS DISTORTING EXCESSIVELY.
   ELEMENT SPIRAL-1.1990 IS DISTORTING EXCESSIVELY.
   ELEMENT SPIRAL-1.1991 IS DISTORTING EXCESSIVELY.
   ELEMENT SPIRAL-1.1992 IS DISTORTING EXCESSIVELY.
   ELEMENT SPIRAL-1.1995 IS DISTORTING EXCESSIVELY.
   ELEMENT SPIRAL-1.1996 IS DISTORTING EXCESSIVELY.
   ELEMENT SPIRAL-1.1998 IS DISTORTING EXCESSIVELY.
   ELEMENT SPIRAL-1.1999 IS DISTORTING EXCESSIVELY.
   ELEMENT SPIRAL-1.2000 IS DISTORTING EXCESSIVELY.
   ELEMENT SPIRAL-1.2002 IS DISTORTING EXCESSIVELY.
   ELEMENT SPIRAL-1.2003 IS DISTORTING EXCESSIVELY.
   ELEMENT SPIRAL-1.2005 IS DISTORTING EXCESSIVELY.
   ELEMENT SPIRAL-1.2008 IS DISTORTING EXCESSIVELY.
   ELEMENT SPIRAL-1.2009 IS DISTORTING EXCESSIVELY.
   ELEMENT SPIRAL-1.2010 IS DISTORTING EXCESSIVELY.
   ELEMENT SPIRAL-1.2011 IS DISTORTING EXCESSIVELY.
   ELEMENT SPIRAL-1.2012 IS DISTORTING EXCESSIVELY.
   ELEMENT SPIRAL-1.2013 IS DISTORTING EXCESSIVELY.
   ELEMENT SPIRAL-1.2016 IS DISTORTING EXCESSIVELY.
   ELEMENT SPIRAL-1.2018 IS DISTORTING EXCESSIVELY.
   ELEMENT SPIRAL-1.2021 IS DISTORTING EXCESSIVELY.
   ELEMENT SPIRAL-1.2024 IS DISTORTING EXCESSIVELY.
   ELEMENT SPIRAL-1.2026 IS DISTORTING EXCESSIVELY.
   ELEMENT SPIRAL-1.2028 IS DISTORTING EXCESSIVELY.
   ELEMENT SPIRAL-1.2029 IS DISTORTING EXCESSIVELY.
   ELEMENT SPIRAL-1.2032 IS DISTORTING EXCESSIVELY.
   ELEMENT SPIRAL-1.2035 IS DISTORTING EXCESSIVELY.
   ELEMENT SPIRAL-1.2040 IS DISTORTING EXCESSIVELY.
   ELEMENT SPIRAL-1.2043 IS DISTORTING EXCESSIVELY.
   ELEMENT SPIRAL-1.2045 IS DISTORTING EXCESSIVELY.
   ELEMENT SPIRAL-1.2046 IS DISTORTING EXCESSIVELY.
   ELEMENT SPIRAL-1.2048 IS DISTORTING EXCESSIVELY.
   ELEMENT SPIRAL-1.2050 IS DISTORTING EXCESSIVELY.
   ELEMENT SPIRAL-1.2051 IS DISTORTING EXCESSIVELY.
   ELEMENT SPIRAL-1.2052 IS DISTORTING EXCESSIVELY.
   ELEMENT SPIRAL-1.2054 IS DISTORTING EXCESSIVELY.
   ELEMENT SPIRAL-1.2055 IS DISTORTING EXCESSIVELY.
   ELEMENT SPIRAL-1.2056 IS DISTORTING EXCESSIVELY.
   ELEMENT SPIRAL-1.2057 IS DISTORTING EXCESSIVELY.
   ELEMENT SPIRAL-1.2059 IS DISTORTING EXCESSIVELY.
   ELEMENT SPIRAL-1.2061 IS DISTORTING EXCESSIVELY.
   ELEMENT SPIRAL-1.2062 IS DISTORTING EXCESSIVELY.
   ELEMENT SPIRAL-1.2063 IS DISTORTING EXCESSIVELY.
   ELEMENT SPIRAL-1.2064 IS DISTORTING EXCESSIVELY.
   ELEMENT SPIRAL-1.2067 IS DISTORTING EXCESSIVELY.
   ELEMENT SPIRAL-1.2068 IS DISTORTING EXCESSIVELY.
   ELEMENT SPIRAL-1.2070 IS DISTORTING EXCESSIVELY.
   ELEMENT SPIRAL-1.2075 IS DISTORTING EXCESSIVELY.
   ELEMENT SPIRAL-1.2076 IS DISTORTING EXCESSIVELY.
   ELEMENT SPIRAL-1.2077 IS DISTORTING EXCESSIVELY.
   ELEMENT SPIRAL-1.2082 IS DISTORTING EXCESSIVELY.
   ELEMENT SPIRAL-1.2084 IS DISTORTING EXCESSIVELY.
   ELEMENT SPIRAL-1.2088 IS DISTORTING EXCESSIVELY.
   ELEMENT SPIRAL-1.2089 IS DISTORTING EXCESSIVELY.
   ELEMENT SPIRAL-1.2096 IS DISTORTING EXCESSIVELY.
   ELEMENT SPIRAL-1.2098 IS DISTORTING EXCESSIVELY.
   ELEMENT SPIRAL-1.2099 IS DISTORTING EXCESSIVELY.
   ELEMENT SPIRAL-1.2102 IS DISTORTING EXCESSIVELY.
   ELEMENT SPIRAL-1.2103 IS DISTORTING EXCESSIVELY.
   ELEMENT SPIRAL-1.2104 IS DISTORTING EXCESSIVELY.
   ELEMENT SPIRAL-1.2107 IS DISTORTING EXCESSIVELY.
   ELEMENT SPIRAL-1.2109 IS DISTORTING EXCESSIVELY.
   ELEMENT SPIRAL-1.2111 IS DISTORTING EXCESSIVELY.
   ELEMENT SPIRAL-1.2113 IS DISTORTING EXCESSIVELY.
   ELEMENT SPIRAL-1.2116 IS DISTORTING EXCESSIVELY.
   ELEMENT SPIRAL-1.2117 IS DISTORTING EXCESSIVELY.
   ELEMENT SPIRAL-1.2119 IS DISTORTING EXCESSIVELY.
   ELEMENT SPIRAL-1.2120 IS DISTORTING EXCESSIVELY.
   ELEMENT SPIRAL-1.2121 IS DISTORTING EXCESSIVELY.
   ELEMENT SPIRAL-1.2123 IS DISTORTING EXCESSIVELY.
   ELEMENT SPIRAL-1.2124 IS DISTORTING EXCESSIVELY.
   ELEMENT SPIRAL-1.2125 IS DISTORTING EXCESSIVELY.
   ELEMENT SPIRAL-1.2126 IS DISTORTING EXCESSIVELY.
   ELEMENT SPIRAL-1.2127 IS DISTORTING EXCESSIVELY.
   ELEMENT SPIRAL-1.2132 IS DISTORTING EXCESSIVELY.
   ELEMENT SPIRAL-1.2133 IS DISTORTING EXCESSIVELY.
   ELEMENT SPIRAL-1.2134 IS DISTORTING EXCESSIVELY.
   ELEMENT SPIRAL-1.2135 IS DISTORTING EXCESSIVELY.
   ELEMENT SPIRAL-1.2137 IS DISTORTING EXCESSIVELY.
   ELEMENT SPIRAL-1.2139 IS DISTORTING EXCESSIVELY.
   ELEMENT SPIRAL-1.2140 IS DISTORTING EXCESSIVELY.
   ELEMENT SPIRAL-1.2142 IS DISTORTING EXCESSIVELY.
   ELEMENT SPIRAL-1.2143 IS DISTORTING EXCESSIVELY.
   ELEMENT SPIRAL-1.2145 IS DISTORTING EXCESSIVELY.
   ELEMENT SPIRAL-1.2150 IS DISTORTING EXCESSIVELY.
   ELEMENT SPIRAL-1.2154 IS DISTORTING EXCESSIVELY.
   ELEMENT SPIRAL-1.2155 IS DISTORTING EXCESSIVELY.
   ELEMENT SPIRAL-1.2156 IS DISTORTING EXCESSIVELY.
   ELEMENT SPIRAL-1.2160 IS DISTORTING EXCESSIVELY.
   ELEMENT SPIRAL-1.2162 IS DISTORTING EXCESSIVELY.
   ELEMENT SPIRAL-1.2164 IS DISTORTING EXCESSIVELY.
   ELEMENT SPIRAL-1.2165 IS DISTORTING EXCESSIVELY.
   ELEMENT SPIRAL-1.2166 IS DISTORTING EXCESSIVELY.
   ELEMENT SPIRAL-1.2171 IS DISTORTING EXCESSIVELY.
   ELEMENT SPIRAL-1.2173 IS DISTORTING EXCESSIVELY.
   ELEMENT SPIRAL-1.2174 IS DISTORTING EXCESSIVELY.
   ELEMENT SPIRAL-1.2176 IS DISTORTING EXCESSIVELY.
   ELEMENT SPIRAL-1.2177 IS DISTORTING EXCESSIVELY.
   ELEMENT SPIRAL-1.2181 IS DISTORTING EXCESSIVELY.
   ELEMENT SPIRAL-1.2185 IS DISTORTING EXCESSIVELY.
   ELEMENT SPIRAL-1.2186 IS DISTORTING EXCESSIVELY.
   ELEMENT SPIRAL-1.2188 IS DISTORTING EXCESSIVELY.
   ELEMENT SPIRAL-1.2190 IS DISTORTING EXCESSIVELY.
   ELEMENT SPIRAL-1.2191 IS DISTORTING EXCESSIVELY.
   ELEMENT SPIRAL-1.2192 IS DISTORTING EXCESSIVELY.
   ELEMENT SPIRAL-1.2193 IS DISTORTING EXCESSIVELY.
   ELEMENT SPIRAL-1.2194 IS DISTORTING EXCESSIVELY.
   ELEMENT SPIRAL-1.2196 IS DISTORTING EXCESSIVELY.
   ELEMENT SPIRAL-1.2203 IS DISTORTING EXCESSIVELY.
   ELEMENT SPIRAL-1.2208 IS DISTORTING EXCESSIVELY.
   ELEMENT SPIRAL-1.2209 IS DISTORTING EXCESSIVELY.
   ELEMENT SPIRAL-1.2213 IS DISTORTING EXCESSIVELY.
   ELEMENT SPIRAL-1.2215 IS DISTORTING EXCESSIVELY.
   ELEMENT SPIRAL-1.2216 IS DISTORTING EXCESSIVELY.
   ELEMENT SPIRAL-1.2221 IS DISTORTING EXCESSIVELY.
   ELEMENT SPIRAL-1.2222 IS DISTORTING EXCESSIVELY.
   ELEMENT SPIRAL-1.2223 IS DISTORTING EXCESSIVELY.
   ELEMENT SPIRAL-1.2225 IS DISTORTING EXCESSIVELY.
   ELEMENT SPIRAL-1.2226 IS DISTORTING EXCESSIVELY.
   ELEMENT SPIRAL-1.2227 IS DISTORTING EXCESSIVELY.
   ELEMENT SPIRAL-1.2229 IS DISTORTING EXCESSIVELY.
   ELEMENT SPIRAL-1.2231 IS DISTORTING EXCESSIVELY.
   ELEMENT SPIRAL-1.2234 IS DISTORTING EXCESSIVELY.
   ELEMENT SPIRAL-1.2235 IS DISTORTING EXCESSIVELY.
   ELEMENT SPIRAL-1.2236 IS DISTORTING EXCESSIVELY.
   ELEMENT SPIRAL-1.2237 IS DISTORTING EXCESSIVELY.
   ELEMENT SPIRAL-1.2240 IS DISTORTING EXCESSIVELY.
   ELEMENT SPIRAL-1.2244 IS DISTORTING EXCESSIVELY.
   ELEMENT SPIRAL-1.2245 IS DISTORTING EXCESSIVELY.
   ELEMENT SPIRAL-1.2247 IS DISTORTING EXCESSIVELY.
   ELEMENT SPIRAL-1.2248 IS DISTORTING EXCESSIVELY.
   ELEMENT SPIRAL-1.2250 IS DISTORTING EXCESSIVELY.
   ELEMENT SPIRAL-1.2251 IS DISTORTING EXCESSIVELY.
   ELEMENT SPIRAL-1.2252 IS DISTORTING EXCESSIVELY.
   ELEMENT SPIRAL-1.2256 IS DISTORTING EXCESSIVELY.
   ELEMENT SPIRAL-1.2259 IS DISTORTING EXCESSIVELY.
   ELEMENT SPIRAL-1.2264 IS DISTORTING EXCESSIVELY.
   ELEMENT SPIRAL-1.2265 IS DISTORTING EXCESSIVELY.
   ELEMENT SPIRAL-1.2268 IS DISTORTING EXCESSIVELY.
   ELEMENT SPIRAL-1.2270 IS DISTORTING EXCESSIVELY.
   ELEMENT SPIRAL-1.2274 IS DISTORTING EXCESSIVELY.
   ELEMENT SPIRAL-1.2275 IS DISTORTING EXCESSIVELY.
   ELEMENT SPIRAL-1.2278 IS DISTORTING EXCESSIVELY.
   ELEMENT SPIRAL-1.2281 IS DISTORTING EXCESSIVELY.
   ELEMENT SPIRAL-1.2283 IS DISTORTING EXCESSIVELY.
   ELEMENT SPIRAL-1.2286 IS DISTORTING EXCESSIVELY.
   ELEMENT SPIRAL-1.2287 IS DISTORTING EXCESSIVELY.
   ELEMENT SPIRAL-1.2289 IS DISTORTING EXCESSIVELY.
   ELEMENT SPIRAL-1.2291 IS DISTORTING EXCESSIVELY.
   ELEMENT SPIRAL-1.2292 IS DISTORTING EXCESSIVELY.
   ELEMENT SPIRAL-1.2293 IS DISTORTING EXCESSIVELY.
   ELEMENT SPIRAL-1.2298 IS DISTORTING EXCESSIVELY.
   ELEMENT SPIRAL-1.2301 IS DISTORTING EXCESSIVELY.
   ELEMENT SPIRAL-1.2302 IS DISTORTING EXCESSIVELY.
   ELEMENT SPIRAL-1.2303 IS DISTORTING EXCESSIVELY.
   ELEMENT SPIRAL-1.2305 IS DISTORTING EXCESSIVELY.
   ELEMENT SPIRAL-1.2306 IS DISTORTING EXCESSIVELY.
   ELEMENT SPIRAL-1.2308 IS DISTORTING EXCESSIVELY.
   ELEMENT SPIRAL-1.2309 IS DISTORTING EXCESSIVELY.
   ELEMENT SPIRAL-1.2313 IS DISTORTING EXCESSIVELY.
   ELEMENT SPIRAL-1.2316 IS DISTORTING EXCESSIVELY.
   ELEMENT SPIRAL-1.2319 IS DISTORTING EXCESSIVELY.
   ELEMENT SPIRAL-1.2320 IS DISTORTING EXCESSIVELY.
   ELEMENT SPIRAL-1.2323 IS DISTORTING EXCESSIVELY.
   ELEMENT SPIRAL-1.2324 IS DISTORTING EXCESSIVELY.
   ELEMENT SPIRAL-1.2327 IS DISTORTING EXCESSIVELY.
   ELEMENT SPIRAL-1.2328 IS DISTORTING EXCESSIVELY.
   ELEMENT SPIRAL-1.2332 IS DISTORTING EXCESSIVELY.
   ELEMENT SPIRAL-1.2333 IS DISTORTING EXCESSIVELY.
   ELEMENT SPIRAL-1.2335 IS DISTORTING EXCESSIVELY.
   ELEMENT SPIRAL-1.2336 IS DISTORTING EXCESSIVELY.
   ELEMENT SPIRAL-1.2338 IS DISTORTING EXCESSIVELY.
   ELEMENT SPIRAL-1.2339 IS DISTORTING EXCESSIVELY.
   ELEMENT SPIRAL-1.2343 IS DISTORTING EXCESSIVELY.
   ELEMENT SPIRAL-1.2344 IS DISTORTING EXCESSIVELY.
   ELEMENT SPIRAL-1.2350 IS DISTORTING EXCESSIVELY.
   ELEMENT SPIRAL-1.2351 IS DISTORTING EXCESSIVELY.
   ELEMENT SPIRAL-1.2354 IS DISTORTING EXCESSIVELY.
   ELEMENT SPIRAL-1.2355 IS DISTORTING EXCESSIVELY.
   ELEMENT SPIRAL-1.2356 IS DISTORTING EXCESSIVELY.
   ELEMENT SPIRAL-1.2357 IS DISTORTING EXCESSIVELY.
   ELEMENT SPIRAL-1.2358 IS DISTORTING EXCESSIVELY.
   ELEMENT SPIRAL-1.2359 IS DISTORTING EXCESSIVELY.
   ELEMENT SPIRAL-1.2361 IS DISTORTING EXCESSIVELY.
   ELEMENT SPIRAL-1.2363 IS DISTORTING EXCESSIVELY.
   ELEMENT SPIRAL-1.2364 IS DISTORTING EXCESSIVELY.
   ELEMENT SPIRAL-1.2365 IS DISTORTING EXCESSIVELY.
   ELEMENT SPIRAL-1.2367 IS DISTORTING EXCESSIVELY.
   ELEMENT SPIRAL-1.2368 IS DISTORTING EXCESSIVELY.
   ELEMENT SPIRAL-1.2370 IS DISTORTING EXCESSIVELY.
   ELEMENT SPIRAL-1.2373 IS DISTORTING EXCESSIVELY.
   ELEMENT SPIRAL-1.2377 IS DISTORTING EXCESSIVELY.
   ELEMENT SPIRAL-1.2379 IS DISTORTING EXCESSIVELY.
   ELEMENT SPIRAL-1.2380 IS DISTORTING EXCESSIVELY.
   ELEMENT SPIRAL-1.2381 IS DISTORTING EXCESSIVELY.
   ELEMENT SPIRAL-1.2382 IS DISTORTING EXCESSIVELY.
   ELEMENT SPIRAL-1.2383 IS DISTORTING EXCESSIVELY.
   ELEMENT SPIRAL-1.2384 IS DISTORTING EXCESSIVELY.
   ELEMENT SPIRAL-1.2385 IS DISTORTING EXCESSIVELY.
   ELEMENT SPIRAL-1.2387 IS DISTORTING EXCESSIVELY.
   ELEMENT SPIRAL-1.2388 IS DISTORTING EXCESSIVELY.
   ELEMENT SPIRAL-1.2389 IS DISTORTING EXCESSIVELY.
   ELEMENT SPIRAL-1.2392 IS DISTORTING EXCESSIVELY.
   ELEMENT SPIRAL-1.2393 IS DISTORTING EXCESSIVELY.
   ELEMENT SPIRAL-1.2395 IS DISTORTING EXCESSIVELY.
   ELEMENT SPIRAL-1.2396 IS DISTORTING EXCESSIVELY.
   ELEMENT SPIRAL-1.2402 IS DISTORTING EXCESSIVELY.
   ELEMENT SPIRAL-1.2403 IS DISTORTING EXCESSIVELY.
   ELEMENT SPIRAL-1.2406 IS DISTORTING EXCESSIVELY.
   ELEMENT SPIRAL-1.2407 IS DISTORTING EXCESSIVELY.
   ELEMENT SPIRAL-1.2409 IS DISTORTING EXCESSIVELY.
   ELEMENT SPIRAL-1.2410 IS DISTORTING EXCESSIVELY.
   ELEMENT SPIRAL-1.2411 IS DISTORTING EXCESSIVELY.
   ELEMENT SPIRAL-1.2417 IS DISTORTING EXCESSIVELY.
   ELEMENT SPIRAL-1.2419 IS DISTORTING EXCESSIVELY.
   ELEMENT SPIRAL-1.2420 IS DISTORTING EXCESSIVELY.
   ELEMENT SPIRAL-1.2421 IS DISTORTING EXCESSIVELY.
   ELEMENT SPIRAL-1.2422 IS DISTORTING EXCESSIVELY.
   ELEMENT SPIRAL-1.2424 IS DISTORTING EXCESSIVELY.
   ELEMENT SPIRAL-1.2426 IS DISTORTING EXCESSIVELY.
   ELEMENT SPIRAL-1.2427 IS DISTORTING EXCESSIVELY.
   ELEMENT SPIRAL-1.2429 IS DISTORTING EXCESSIVELY.
   ELEMENT SPIRAL-1.2430 IS DISTORTING EXCESSIVELY.
   ELEMENT SPIRAL-1.2431 IS DISTORTING EXCESSIVELY.
   ELEMENT SPIRAL-1.2432 IS DISTORTING EXCESSIVELY.
   ELEMENT SPIRAL-1.2435 IS DISTORTING EXCESSIVELY.
   ELEMENT SPIRAL-1.2439 IS DISTORTING EXCESSIVELY.
   ELEMENT SPIRAL-1.2442 IS DISTORTING EXCESSIVELY.
   ELEMENT SPIRAL-1.2443 IS DISTORTING EXCESSIVELY.
   ELEMENT SPIRAL-1.2444 IS DISTORTING EXCESSIVELY.
   ELEMENT SPIRAL-1.2445 IS DISTORTING EXCESSIVELY.
   ELEMENT SPIRAL-1.2446 IS DISTORTING EXCESSIVELY.
   ELEMENT SPIRAL-1.2448 IS DISTORTING EXCESSIVELY.
   ELEMENT SPIRAL-1.2449 IS DISTORTING EXCESSIVELY.
   ELEMENT SPIRAL-1.2450 IS DISTORTING EXCESSIVELY.
   ELEMENT SPIRAL-1.2451 IS DISTORTING EXCESSIVELY.
   ELEMENT SPIRAL-1.2452 IS DISTORTING EXCESSIVELY.
   ELEMENT SPIRAL-1.2453 IS DISTORTING EXCESSIVELY.
   ELEMENT SPIRAL-1.2457 IS DISTORTING EXCESSIVELY.
   ELEMENT SPIRAL-1.2458 IS DISTORTING EXCESSIVELY.
   ELEMENT SPIRAL-1.2460 IS DISTORTING EXCESSIVELY.
   ELEMENT SPIRAL-1.2461 IS DISTORTING EXCESSIVELY.
   ELEMENT SPIRAL-1.2462 IS DISTORTING EXCESSIVELY.
   ELEMENT SPIRAL-1.2463 IS DISTORTING EXCESSIVELY.
   ELEMENT SPIRAL-1.2467 IS DISTORTING EXCESSIVELY.
   ELEMENT SPIRAL-1.2469 IS DISTORTING EXCESSIVELY.
   ELEMENT SPIRAL-1.2470 IS DISTORTING EXCESSIVELY.
   ELEMENT SPIRAL-1.2471 IS DISTORTING EXCESSIVELY.
   ELEMENT SPIRAL-1.2472 IS DISTORTING EXCESSIVELY.
   ELEMENT SPIRAL-1.2473 IS DISTORTING EXCESSIVELY.
   ELEMENT SPIRAL-1.2475 IS DISTORTING EXCESSIVELY.
   ELEMENT SPIRAL-1.2476 IS DISTORTING EXCESSIVELY.
   ELEMENT SPIRAL-1.2478 IS DISTORTING EXCESSIVELY.
   ELEMENT SPIRAL-1.2480 IS DISTORTING EXCESSIVELY.
   ELEMENT SPIRAL-1.2482 IS DISTORTING EXCESSIVELY.
   ELEMENT SPIRAL-1.2485 IS DISTORTING EXCESSIVELY.
   ELEMENT SPIRAL-1.2487 IS DISTORTING EXCESSIVELY.
   ELEMENT SPIRAL-1.2489 IS DISTORTING EXCESSIVELY.
   ELEMENT SPIRAL-1.2490 IS DISTORTING EXCESSIVELY.
   ELEMENT SPIRAL-1.2492 IS DISTORTING EXCESSIVELY.
   ELEMENT SPIRAL-1.2493 IS DISTORTING EXCESSIVELY.
   ELEMENT SPIRAL-1.2494 IS DISTORTING EXCESSIVELY.
   ELEMENT SPIRAL-1.2495 IS DISTORTING EXCESSIVELY.
   ELEMENT SPIRAL-1.2500 IS DISTORTING EXCESSIVELY.
   ELEMENT SPIRAL-1.2502 IS DISTORTING EXCESSIVELY.
   ELEMENT SPIRAL-1.2504 IS DISTORTING EXCESSIVELY.
   ELEMENT SPIRAL-1.2505 IS DISTORTING EXCESSIVELY.
   ELEMENT SPIRAL-1.2507 IS DISTORTING EXCESSIVELY.
   ELEMENT SPIRAL-1.2508 IS DISTORTING EXCESSIVELY.
   ELEMENT SPIRAL-1.2510 IS DISTORTING EXCESSIVELY.
   ELEMENT SPIRAL-1.2511 IS DISTORTING EXCESSIVELY.
   ELEMENT SPIRAL-1.2512 IS DISTORTING EXCESSIVELY.
   ELEMENT SPIRAL-1.2513 IS DISTORTING EXCESSIVELY.
   ELEMENT SPIRAL-1.2517 IS DISTORTING EXCESSIVELY.
   ELEMENT SPIRAL-1.2519 IS DISTORTING EXCESSIVELY.
   ELEMENT SPIRAL-1.2520 IS DISTORTING EXCESSIVELY.
   ELEMENT SPIRAL-1.2522 IS DISTORTING EXCESSIVELY.
   ELEMENT SPIRAL-1.2523 IS DISTORTING EXCESSIVELY.
   ELEMENT SPIRAL-1.2524 IS DISTORTING EXCESSIVELY.
   ELEMENT SPIRAL-1.2525 IS DISTORTING EXCESSIVELY.
   ELEMENT SPIRAL-1.2527 IS DISTORTING EXCESSIVELY.
   ELEMENT SPIRAL-1.2528 IS DISTORTING EXCESSIVELY.
   ELEMENT SPIRAL-1.2533 IS DISTORTING EXCESSIVELY.
   ELEMENT SPIRAL-1.2534 IS DISTORTING EXCESSIVELY.
   ELEMENT SPIRAL-1.2535 IS DISTORTING EXCESSIVELY.
   ELEMENT SPIRAL-1.2536 IS DISTORTING EXCESSIVELY.
   ELEMENT SPIRAL-1.2537 IS DISTORTING EXCESSIVELY.
   ELEMENT SPIRAL-1.2538 IS DISTORTING EXCESSIVELY.
   ELEMENT SPIRAL-1.2539 IS DISTORTING EXCESSIVELY.
   ELEMENT SPIRAL-1.2540 IS DISTORTING EXCESSIVELY.
   ELEMENT SPIRAL-1.2541 IS DISTORTING EXCESSIVELY.
   ELEMENT SPIRAL-1.2542 IS DISTORTING EXCESSIVELY.
   ELEMENT SPIRAL-1.2544 IS DISTORTING EXCESSIVELY.
   ELEMENT SPIRAL-1.2545 IS DISTORTING EXCESSIVELY.
   ELEMENT SPIRAL-1.2551 IS DISTORTING EXCESSIVELY.
   ELEMENT SPIRAL-1.2552 IS DISTORTING EXCESSIVELY.
   ELEMENT SPIRAL-1.2554 IS DISTORTING EXCESSIVELY.
   ELEMENT SPIRAL-1.2556 IS DISTORTING EXCESSIVELY.
   ELEMENT SPIRAL-1.2558 IS DISTORTING EXCESSIVELY.
   ELEMENT SPIRAL-1.2560 IS DISTORTING EXCESSIVELY.
   ELEMENT SPIRAL-1.2562 IS DISTORTING EXCESSIVELY.
   ELEMENT SPIRAL-1.2566 IS DISTORTING EXCESSIVELY.
   ELEMENT SPIRAL-1.2569 IS DISTORTING EXCESSIVELY.
   ELEMENT SPIRAL-1.2570 IS DISTORTING EXCESSIVELY.
   ELEMENT SPIRAL-1.2572 IS DISTORTING EXCESSIVELY.
   ELEMENT SPIRAL-1.2575 IS DISTORTING EXCESSIVELY.
   ELEMENT SPIRAL-1.2576 IS DISTORTING EXCESSIVELY.
   ELEMENT SPIRAL-1.2578 IS DISTORTING EXCESSIVELY.
   ELEMENT SPIRAL-1.2579 IS DISTORTING EXCESSIVELY.
   ELEMENT SPIRAL-1.2581 IS DISTORTING EXCESSIVELY.
   ELEMENT SPIRAL-1.2583 IS DISTORTING EXCESSIVELY.
   ELEMENT SPIRAL-1.2585 IS DISTORTING EXCESSIVELY.
   ELEMENT SPIRAL-1.2586 IS DISTORTING EXCESSIVELY.
   ELEMENT SPIRAL-1.2588 IS DISTORTING EXCESSIVELY.
   ELEMENT SPIRAL-1.2589 IS DISTORTING EXCESSIVELY.
   ELEMENT SPIRAL-1.2593 IS DISTORTING EXCESSIVELY.
[...]
   ELEMENT SPIRAL-1.19322 IS DISTORTING EXCESSIVELY.
   ELEMENT SPIRAL-1.19323 IS DISTORTING EXCESSIVELY.
   ELEMENT SPIRAL-1.19329 IS DISTORTING EXCESSIVELY.
   ELEMENT SPIRAL-1.19332 IS DISTORTING EXCESSIVELY.
   ELEMENT SPIRAL-1.19333 IS DISTORTING EXCESSIVELY.
   ELEMENT SPIRAL-1.19335 IS DISTORTING EXCESSIVELY.
   ELEMENT SPIRAL-1.19337 IS DISTORTING EXCESSIVELY.
   ELEMENT SPIRAL-1.19338 IS DISTORTING EXCESSIVELY.
   ELEMENT SPIRAL-1.19339 IS DISTORTING EXCESSIVELY.
   ELEMENT SPIRAL-1.19343 IS DISTORTING EXCESSIVELY.
   ELEMENT SPIRAL-1.19345 IS DISTORTING EXCESSIVELY.
   ELEMENT SPIRAL-1.19347 IS DISTORTING EXCESSIVELY.
   ELEMENT SPIRAL-1.19349 IS DISTORTING EXCESSIVELY.
   ELEMENT SPIRAL-1.19354 IS DISTORTING EXCESSIVELY.
   ELEMENT SPIRAL-1.19356 IS DISTORTING EXCESSIVELY.
   ELEMENT SPIRAL-1.19357 IS DISTORTING EXCESSIVELY.
   ELEMENT SPIRAL-1.19358 IS DISTORTING EXCESSIVELY.
   ELEMENT SPIRAL-1.19362 IS DISTORTING EXCESSIVELY.
   ELEMENT SPIRAL-1.19364 IS DISTORTING EXCESSIVELY.
   ELEMENT SPIRAL-1.19370 IS DISTORTING EXCESSIVELY.
   ELEMENT SPIRAL-1.19371 IS DISTORTING EXCESSIVELY.
   ELEMENT SPIRAL-1.19372 IS DISTORTING EXCESSIVELY.
   ELEMENT SPIRAL-1.19373 IS DISTORTING EXCESSIVELY.
   ELEMENT SPIRAL-1.19374 IS DISTORTING EXCESSIVELY.
   ELEMENT SPIRAL-1.19376 IS DISTORTING EXCESSIVELY.
   ELEMENT SPIRAL-1.19381 IS DISTORTING EXCESSIVELY.
   ELEMENT SPIRAL-1.19384 IS DISTORTING EXCESSIVELY.
   ELEMENT SPIRAL-1.19386 IS DISTORTING EXCESSIVELY.
   ELEMENT SPIRAL-1.19388 IS DISTORTING EXCESSIVELY.
   ELEMENT SPIRAL-1.19390 IS DISTORTING EXCESSIVELY.
   ELEMENT SPIRAL-1.19398 IS DISTORTING EXCESSIVELY.
   ELEMENT SPIRAL-1.19402 IS DISTORTING EXCESSIVELY.
   ELEMENT SPIRAL-1.19406 IS DISTORTING EXCESSIVELY.
   ELEMENT SPIRAL-1.19407 IS DISTORTING EXCESSIVELY.
   ELEMENT SPIRAL-1.19408 IS DISTORTING EXCESSIVELY.
   ELEMENT SPIRAL-1.19410 IS DISTORTING EXCESSIVELY.
   ELEMENT SPIRAL-1.19412 IS DISTORTING EXCESSIVELY.
   ELEMENT SPIRAL-1.19414 IS DISTORTING EXCESSIVELY.
   ELEMENT SPIRAL-1.19415 IS DISTORTING EXCESSIVELY.
   ELEMENT SPIRAL-1.19416 IS DISTORTING EXCESSIVELY.
   ELEMENT SPIRAL-1.19418 IS DISTORTING EXCESSIVELY.
   ELEMENT SPIRAL-1.19419 IS DISTORTING EXCESSIVELY.
   ELEMENT SPIRAL-1.19420 IS DISTORTING EXCESSIVELY.
   ELEMENT SPIRAL-1.19421 IS DISTORTING EXCESSIVELY.
   ELEMENT SPIRAL-1.19424 IS DISTORTING EXCESSIVELY.
   ELEMENT SPIRAL-1.19425 IS DISTORTING EXCESSIVELY.
   ELEMENT SPIRAL-1.19427 IS DISTORTING EXCESSIVELY.
   ELEMENT SPIRAL-1.19428 IS DISTORTING EXCESSIVELY.
   ELEMENT SPIRAL-1.19429 IS DISTORTING EXCESSIVELY.
   ELEMENT SPIRAL-1.19430 IS DISTORTING EXCESSIVELY.
   ELEMENT SPIRAL-1.19431 IS DISTORTING EXCESSIVELY.
   ELEMENT SPIRAL-1.19432 IS DISTORTING EXCESSIVELY.
   ELEMENT SPIRAL-1.19433 IS DISTORTING EXCESSIVELY.
   ELEMENT SPIRAL-1.19439 IS DISTORTING EXCESSIVELY.
   ELEMENT SPIRAL-1.19440 IS DISTORTING EXCESSIVELY.
   ELEMENT SPIRAL-1.19441 IS DISTORTING EXCESSIVELY.
   ELEMENT SPIRAL-1.19444 IS DISTORTING EXCESSIVELY.
   ELEMENT SPIRAL-1.19453 IS DISTORTING EXCESSIVELY.
   ELEMENT SPIRAL-1.19454 IS DISTORTING EXCESSIVELY.
   ELEMENT SPIRAL-1.19457 IS DISTORTING EXCESSIVELY.
   ELEMENT SPIRAL-1.19458 IS DISTORTING EXCESSIVELY.
   ELEMENT SPIRAL-1.19459 IS DISTORTING EXCESSIVELY.
   ELEMENT SPIRAL-1.19460 IS DISTORTING EXCESSIVELY.
   ELEMENT SPIRAL-1.19461 IS DISTORTING EXCESSIVELY.
   ELEMENT SPIRAL-1.19462 IS DISTORTING EXCESSIVELY.
   ELEMENT SPIRAL-1.19469 IS DISTORTING EXCESSIVELY.
   ELEMENT SPIRAL-1.19472 IS DISTORTING EXCESSIVELY.
   ELEMENT SPIRAL-1.19473 IS DISTORTING EXCESSIVELY.
   ELEMENT SPIRAL-1.19476 IS DISTORTING EXCESSIVELY.
   ELEMENT SPIRAL-1.19478 IS DISTORTING EXCESSIVELY.
   ELEMENT SPIRAL-1.19483 IS DISTORTING EXCESSIVELY.
   ELEMENT SPIRAL-1.19484 IS DISTORTING EXCESSIVELY.
   ELEMENT SPIRAL-1.19490 IS DISTORTING EXCESSIVELY.
   ELEMENT SPIRAL-1.19491 IS DISTORTING EXCESSIVELY.
   ELEMENT SPIRAL-1.19493 IS DISTORTING EXCESSIVELY.
   ELEMENT SPIRAL-1.19494 IS DISTORTING EXCESSIVELY.
   ELEMENT SPIRAL-1.19495 IS DISTORTING EXCESSIVELY.
   ELEMENT SPIRAL-1.19501 IS DISTORTING EXCESSIVELY.
   ELEMENT SPIRAL-1.19503 IS DISTORTING EXCESSIVELY.
   ELEMENT SPIRAL-1.19504 IS DISTORTING EXCESSIVELY.
   ELEMENT SPIRAL-1.19505 IS DISTORTING EXCESSIVELY.
   ELEMENT SPIRAL-1.19506 IS DISTORTING EXCESSIVELY.
   ELEMENT SPIRAL-1.19507 IS DISTORTING EXCESSIVELY.
   ELEMENT SPIRAL-1.19511 IS DISTORTING EXCESSIVELY.
   ELEMENT SPIRAL-1.19514 IS DISTORTING EXCESSIVELY.
   ELEMENT SPIRAL-1.19516 IS DISTORTING EXCESSIVELY.
   ELEMENT SPIRAL-1.19517 IS DISTORTING EXCESSIVELY.
   ELEMENT SPIRAL-1.19518 IS DISTORTING EXCESSIVELY.
   ELEMENT SPIRAL-1.19519 IS DISTORTING EXCESSIVELY.
   ELEMENT SPIRAL-1.19521 IS DISTORTING EXCESSIVELY.
   ELEMENT SPIRAL-1.19522 IS DISTORTING EXCESSIVELY.
   ELEMENT SPIRAL-1.19526 IS DISTORTING EXCESSIVELY.
   ELEMENT SPIRAL-1.19528 IS DISTORTING EXCESSIVELY.
   ELEMENT SPIRAL-1.19530 IS DISTORTING EXCESSIVELY.
   ELEMENT SPIRAL-1.19531 IS DISTORTING EXCESSIVELY.
   ELEMENT SPIRAL-1.19533 IS DISTORTING EXCESSIVELY.
   ELEMENT SPIRAL-1.19537 IS DISTORTING EXCESSIVELY.
   ELEMENT SPIRAL-1.19541 IS DISTORTING EXCESSIVELY.
   ELEMENT SPIRAL-1.19542 IS DISTORTING EXCESSIVELY.
   ELEMENT SPIRAL-1.19545 IS DISTORTING EXCESSIVELY.
   ELEMENT SPIRAL-1.19547 IS DISTORTING EXCESSIVELY.
   ELEMENT SPIRAL-1.19548 IS DISTORTING EXCESSIVELY.
   ELEMENT SPIRAL-1.19549 IS DISTORTING EXCESSIVELY.
   ELEMENT SPIRAL-1.19550 IS DISTORTING EXCESSIVELY.
   ELEMENT SPIRAL-1.19553 IS DISTORTING EXCESSIVELY.
   ELEMENT SPIRAL-1.19563 IS DISTORTING EXCESSIVELY.
   ELEMENT SPIRAL-1.19564 IS DISTORTING EXCESSIVELY.
   ELEMENT SPIRAL-1.19567 IS DISTORTING EXCESSIVELY.
   ELEMENT SPIRAL-1.19568 IS DISTORTING EXCESSIVELY.
   ELEMENT SPIRAL-1.19571 IS DISTORTING EXCESSIVELY.
   ELEMENT SPIRAL-1.19572 IS DISTORTING EXCESSIVELY.
   ELEMENT SPIRAL-1.19576 IS DISTORTING EXCESSIVELY.
   ELEMENT SPIRAL-1.19577 IS DISTORTING EXCESSIVELY.
   ELEMENT SPIRAL-1.19578 IS DISTORTING EXCESSIVELY.
   ELEMENT SPIRAL-1.19580 IS DISTORTING EXCESSIVELY.
   ELEMENT SPIRAL-1.19585 IS DISTORTING EXCESSIVELY.
   ELEMENT SPIRAL-1.19588 IS DISTORTING EXCESSIVELY.
   ELEMENT SPIRAL-1.19589 IS DISTORTING EXCESSIVELY.
   ELEMENT SPIRAL-1.19591 IS DISTORTING EXCESSIVELY.
   ELEMENT SPIRAL-1.19596 IS DISTORTING EXCESSIVELY.
   ELEMENT SPIRAL-1.19597 IS DISTORTING EXCESSIVELY.
   ELEMENT SPIRAL-1.19598 IS DISTORTING EXCESSIVELY.
   ELEMENT SPIRAL-1.19599 IS DISTORTING EXCESSIVELY.
   ELEMENT SPIRAL-1.19600 IS DISTORTING EXCESSIVELY.
   ELEMENT SPIRAL-1.19602 IS DISTORTING EXCESSIVELY.
   ELEMENT SPIRAL-1.19604 IS DISTORTING EXCESSIVELY.
   ELEMENT SPIRAL-1.19608 IS DISTORTING EXCESSIVELY.
   ELEMENT SPIRAL-1.19618 IS DISTORTING EXCESSIVELY.
   ELEMENT SPIRAL-1.19620 IS DISTORTING EXCESSIVELY.
   ELEMENT SPIRAL-1.19624 IS DISTORTING EXCESSIVELY.
   ELEMENT SPIRAL-1.19626 IS DISTORTING EXCESSIVELY.
   ELEMENT SPIRAL-1.19627 IS DISTORTING EXCESSIVELY.
   ELEMENT SPIRAL-1.19628 IS DISTORTING EXCESSIVELY.
   ELEMENT SPIRAL-1.19629 IS DISTORTING EXCESSIVELY.
   ELEMENT SPIRAL-1.19630 IS DISTORTING EXCESSIVELY.
   ELEMENT SPIRAL-1.19632 IS DISTORTING EXCESSIVELY.
   ELEMENT SPIRAL-1.19634 IS DISTORTING EXCESSIVELY.
   ELEMENT SPIRAL-1.19635 IS DISTORTING EXCESSIVELY.
   ELEMENT SPIRAL-1.19639 IS DISTORTING EXCESSIVELY.
   ELEMENT SPIRAL-1.19640 IS DISTORTING EXCESSIVELY.
   ELEMENT SPIRAL-1.19641 IS DISTORTING EXCESSIVELY.
   ELEMENT SPIRAL-1.19645 IS DISTORTING EXCESSIVELY.
   ELEMENT SPIRAL-1.19646 IS DISTORTING EXCESSIVELY.
   ELEMENT SPIRAL-1.19647 IS DISTORTING EXCESSIVELY.
   ELEMENT SPIRAL-1.19648 IS DISTORTING EXCESSIVELY.
   ELEMENT SPIRAL-1.19649 IS DISTORTING EXCESSIVELY.
   ELEMENT SPIRAL-1.19652 IS DISTORTING EXCESSIVELY.
   ELEMENT SPIRAL-1.19653 IS DISTORTING EXCESSIVELY.
   ELEMENT SPIRAL-1.19655 IS DISTORTING EXCESSIVELY.
   ELEMENT SPIRAL-1.19656 IS DISTORTING EXCESSIVELY.
   ELEMENT SPIRAL-1.19657 IS DISTORTING EXCESSIVELY.
   ELEMENT SPIRAL-1.19661 IS DISTORTING EXCESSIVELY.
   ELEMENT SPIRAL-1.19662 IS DISTORTING EXCESSIVELY.
   ELEMENT SPIRAL-1.19666 IS DISTORTING EXCESSIVELY.
   ELEMENT SPIRAL-1.19667 IS DISTORTING EXCESSIVELY.
   ELEMENT SPIRAL-1.19668 IS DISTORTING EXCESSIVELY.
   ELEMENT SPIRAL-1.19669 IS DISTORTING EXCESSIVELY.
   ELEMENT SPIRAL-1.19671 IS DISTORTING EXCESSIVELY.
   ELEMENT SPIRAL-1.19676 IS DISTORTING EXCESSIVELY.
   ELEMENT SPIRAL-1.19679 IS DISTORTING EXCESSIVELY.
   ELEMENT SPIRAL-1.19684 IS DISTORTING EXCESSIVELY.
   ELEMENT SPIRAL-1.19686 IS DISTORTING EXCESSIVELY.
   ELEMENT SPIRAL-1.19687 IS DISTORTING EXCESSIVELY.
   ELEMENT SPIRAL-1.19689 IS DISTORTING EXCESSIVELY.
   ELEMENT SPIRAL-1.19690 IS DISTORTING EXCESSIVELY.
   ELEMENT SPIRAL-1.19691 IS DISTORTING EXCESSIVELY.
   ELEMENT SPIRAL-1.19698 IS DISTORTING EXCESSIVELY.
   ELEMENT SPIRAL-1.19699 IS DISTORTING EXCESSIVELY.
   ELEMENT SPIRAL-1.19700 IS DISTORTING EXCESSIVELY.
   ELEMENT SPIRAL-1.19703 IS DISTORTING EXCESSIVELY.
   ELEMENT SPIRAL-1.19704 IS DISTORTING EXCESSIVELY.
   ELEMENT SPIRAL-1.19705 IS DISTORTING EXCESSIVELY.
   ELEMENT SPIRAL-1.19708 IS DISTORTING EXCESSIVELY.
   ELEMENT SPIRAL-1.19710 IS DISTORTING EXCESSIVELY.
   ELEMENT SPIRAL-1.19715 IS DISTORTING EXCESSIVELY.
   ELEMENT SPIRAL-1.19716 IS DISTORTING EXCESSIVELY.
   ELEMENT SPIRAL-1.19718 IS DISTORTING EXCESSIVELY.
   ELEMENT SPIRAL-1.19722 IS DISTORTING EXCESSIVELY.
   ELEMENT SPIRAL-1.19723 IS DISTORTING EXCESSIVELY.
   ELEMENT SPIRAL-1.19726 IS DISTORTING EXCESSIVELY.
   ELEMENT SPIRAL-1.19730 IS DISTORTING EXCESSIVELY.
   ELEMENT SPIRAL-1.19731 IS DISTORTING EXCESSIVELY.
   ELEMENT SPIRAL-1.19732 IS DISTORTING EXCESSIVELY.
   ELEMENT SPIRAL-1.19733 IS DISTORTING EXCESSIVELY.
   ELEMENT SPIRAL-1.19734 IS DISTORTING EXCESSIVELY.
   ELEMENT SPIRAL-1.19736 IS DISTORTING EXCESSIVELY.
   ELEMENT SPIRAL-1.19738 IS DISTORTING EXCESSIVELY.
   ELEMENT SPIRAL-1.19741 IS DISTORTING EXCESSIVELY.
   ELEMENT SPIRAL-1.19742 IS DISTORTING EXCESSIVELY.
   ELEMENT SPIRAL-1.19745 IS DISTORTING EXCESSIVELY.
   ELEMENT SPIRAL-1.19747 IS DISTORTING EXCESSIVELY.
   ELEMENT SPIRAL-1.19748 IS DISTORTING EXCESSIVELY.
   ELEMENT SPIRAL-1.19751 IS DISTORTING EXCESSIVELY.
   ELEMENT SPIRAL-1.19754 IS DISTORTING EXCESSIVELY.
   ELEMENT SPIRAL-1.19758 IS DISTORTING EXCESSIVELY.
   ELEMENT SPIRAL-1.19761 IS DISTORTING EXCESSIVELY.
   ELEMENT SPIRAL-1.19764 IS DISTORTING EXCESSIVELY.
   ELEMENT SPIRAL-1.19766 IS DISTORTING EXCESSIVELY.
   ELEMENT SPIRAL-1.19769 IS DISTORTING EXCESSIVELY.
   ELEMENT SPIRAL-1.19771 IS DISTORTING EXCESSIVELY.
   ELEMENT SPIRAL-1.19772 IS DISTORTING EXCESSIVELY.
   ELEMENT SPIRAL-1.19773 IS DISTORTING EXCESSIVELY.
   ELEMENT SPIRAL-1.19774 IS DISTORTING EXCESSIVELY.
   ELEMENT SPIRAL-1.19776 IS DISTORTING EXCESSIVELY.
   ELEMENT SPIRAL-1.19777 IS DISTORTING EXCESSIVELY.
   ELEMENT SPIRAL-1.19778 IS DISTORTING EXCESSIVELY.
   ELEMENT SPIRAL-1.19779 IS DISTORTING EXCESSIVELY.
   ELEMENT SPIRAL-1.19781 IS DISTORTING EXCESSIVELY.
   ELEMENT SPIRAL-1.19782 IS DISTORTING EXCESSIVELY.
   ELEMENT SPIRAL-1.19783 IS DISTORTING EXCESSIVELY.
   ELEMENT SPIRAL-1.19784 IS DISTORTING EXCESSIVELY.
   ELEMENT SPIRAL-1.19785 IS DISTORTING EXCESSIVELY.
   ELEMENT SPIRAL-1.19788 IS DISTORTING EXCESSIVELY.
   ELEMENT SPIRAL-1.19791 IS DISTORTING EXCESSIVELY.
   ELEMENT SPIRAL-1.19794 IS DISTORTING EXCESSIVELY.
   ELEMENT SPIRAL-1.19796 IS DISTORTING EXCESSIVELY.
   ELEMENT SPIRAL-1.19798 IS DISTORTING EXCESSIVELY.
   ELEMENT SPIRAL-1.19800 IS DISTORTING EXCESSIVELY.
   ELEMENT SPIRAL-1.19801 IS DISTORTING EXCESSIVELY.
   ELEMENT SPIRAL-1.19803 IS DISTORTING EXCESSIVELY.
   ELEMENT SPIRAL-1.19804 IS DISTORTING EXCESSIVELY.
   ELEMENT SPIRAL-1.19806 IS DISTORTING EXCESSIVELY.
   ELEMENT SPIRAL-1.19808 IS DISTORTING EXCESSIVELY.
   ELEMENT SPIRAL-1.19809 IS DISTORTING EXCESSIVELY.
   ELEMENT SPIRAL-1.19812 IS DISTORTING EXCESSIVELY.
   ELEMENT SPIRAL-1.19816 IS DISTORTING EXCESSIVELY.
   ELEMENT SPIRAL-1.19817 IS DISTORTING EXCESSIVELY.
   ELEMENT SPIRAL-1.19822 IS DISTORTING EXCESSIVELY.
   ELEMENT SPIRAL-1.19836 IS DISTORTING EXCESSIVELY.
   ELEMENT SPIRAL-1.19838 IS DISTORTING EXCESSIVELY.
   ELEMENT SPIRAL-1.19839 IS DISTORTING EXCESSIVELY.
   ELEMENT SPIRAL-1.19840 IS DISTORTING EXCESSIVELY.
   ELEMENT SPIRAL-1.19841 IS DISTORTING EXCESSIVELY.
   ELEMENT SPIRAL-1.19842 IS DISTORTING EXCESSIVELY.
   ELEMENT SPIRAL-1.19843 IS DISTORTING EXCESSIVELY.
   ELEMENT SPIRAL-1.19845 IS DISTORTING EXCESSIVELY.
   ELEMENT SPIRAL-1.19846 IS DISTORTING EXCESSIVELY.
   ELEMENT SPIRAL-1.19848 IS DISTORTING EXCESSIVELY.
   ELEMENT SPIRAL-1.19851 IS DISTORTING EXCESSIVELY.
   ELEMENT SPIRAL-1.19852 IS DISTORTING EXCESSIVELY.
   ELEMENT SPIRAL-1.19854 IS DISTORTING EXCESSIVELY.
   ELEMENT SPIRAL-1.19855 IS DISTORTING EXCESSIVELY.
   ELEMENT SPIRAL-1.19856 IS DISTORTING EXCESSIVELY.
   ELEMENT SPIRAL-1.19859 IS DISTORTING EXCESSIVELY.
   ELEMENT SPIRAL-1.19862 IS DISTORTING EXCESSIVELY.
   ELEMENT SPIRAL-1.19864 IS DISTORTING EXCESSIVELY.
   ELEMENT SPIRAL-1.19865 IS DISTORTING EXCESSIVELY.
   ELEMENT SPIRAL-1.19868 IS DISTORTING EXCESSIVELY.
   ELEMENT SPIRAL-1.19874 IS DISTORTING EXCESSIVELY.
   ELEMENT SPIRAL-1.19880 IS DISTORTING EXCESSIVELY.
   ELEMENT SPIRAL-1.19881 IS DISTORTING EXCESSIVELY.
   ELEMENT SPIRAL-1.19882 IS DISTORTING EXCESSIVELY.
   ELEMENT SPIRAL-1.19885 IS DISTORTING EXCESSIVELY.
   ELEMENT SPIRAL-1.19886 IS DISTORTING EXCESSIVELY.
   ELEMENT SPIRAL-1.19889 IS DISTORTING EXCESSIVELY.
   ELEMENT SPIRAL-1.19891 IS DISTORTING EXCESSIVELY.
   ELEMENT SPIRAL-1.19893 IS DISTORTING EXCESSIVELY.
   ELEMENT SPIRAL-1.19894 IS DISTORTING EXCESSIVELY.
   ELEMENT SPIRAL-1.19896 IS DISTORTING EXCESSIVELY.
   ELEMENT SPIRAL-1.19897 IS DISTORTING EXCESSIVELY.
   ELEMENT SPIRAL-1.19898 IS DISTORTING EXCESSIVELY.
   ELEMENT SPIRAL-1.19901 IS DISTORTING EXCESSIVELY.
   ELEMENT SPIRAL-1.19902 IS DISTORTING EXCESSIVELY.
   ELEMENT SPIRAL-1.19903 IS DISTORTING EXCESSIVELY.
   ELEMENT SPIRAL-1.19905 IS DISTORTING EXCESSIVELY.
   ELEMENT SPIRAL-1.19906 IS DISTORTING EXCESSIVELY.
   ELEMENT SPIRAL-1.19907 IS DISTORTING EXCESSIVELY.
   ELEMENT SPIRAL-1.19910 IS DISTORTING EXCESSIVELY.
   ELEMENT SPIRAL-1.19914 IS DISTORTING EXCESSIVELY.
   ELEMENT SPIRAL-1.19916 IS DISTORTING EXCESSIVELY.
   ELEMENT SPIRAL-1.19917 IS DISTORTING EXCESSIVELY.
   ELEMENT SPIRAL-1.19922 IS DISTORTING EXCESSIVELY.
   ELEMENT SPIRAL-1.19923 IS DISTORTING EXCESSIVELY.
   ELEMENT SPIRAL-1.19925 IS DISTORTING EXCESSIVELY.
   ELEMENT SPIRAL-1.19926 IS DISTORTING EXCESSIVELY.
   ELEMENT SPIRAL-1.19927 IS DISTORTING EXCESSIVELY.
   ELEMENT SPIRAL-1.19928 IS DISTORTING EXCESSIVELY.
   ELEMENT SPIRAL-1.19929 IS DISTORTING EXCESSIVELY.
   ELEMENT SPIRAL-1.19930 IS DISTORTING EXCESSIVELY.
   ELEMENT SPIRAL-1.19931 IS DISTORTING EXCESSIVELY.
   ELEMENT SPIRAL-1.19932 IS DISTORTING EXCESSIVELY.
   ELEMENT SPIRAL-1.19937 IS DISTORTING EXCESSIVELY.
   ELEMENT SPIRAL-1.19938 IS DISTORTING EXCESSIVELY.
   ELEMENT SPIRAL-1.19940 IS DISTORTING EXCESSIVELY.
   ELEMENT SPIRAL-1.19942 IS DISTORTING EXCESSIVELY.
   ELEMENT SPIRAL-1.19944 IS DISTORTING EXCESSIVELY.
   ELEMENT SPIRAL-1.19945 IS DISTORTING EXCESSIVELY.
   ELEMENT SPIRAL-1.19949 IS DISTORTING EXCESSIVELY.
   ELEMENT SPIRAL-1.19955 IS DISTORTING EXCESSIVELY.
   ELEMENT SPIRAL-1.19956 IS DISTORTING EXCESSIVELY.
   ELEMENT SPIRAL-1.19958 IS DISTORTING EXCESSIVELY.
   ELEMENT SPIRAL-1.19961 IS DISTORTING EXCESSIVELY.
   ELEMENT SPIRAL-1.19963 IS DISTORTING EXCESSIVELY.
   ELEMENT SPIRAL-1.19965 IS DISTORTING EXCESSIVELY.
   ELEMENT SPIRAL-1.19966 IS DISTORTING EXCESSIVELY.
   ELEMENT SPIRAL-1.19967 IS DISTORTING EXCESSIVELY.
   ELEMENT SPIRAL-1.19968 IS DISTORTING EXCESSIVELY.
   ELEMENT SPIRAL-1.19969 IS DISTORTING EXCESSIVELY.
   ELEMENT SPIRAL-1.19971 IS DISTORTING EXCESSIVELY.
   ELEMENT SPIRAL-1.19976 IS DISTORTING EXCESSIVELY.
   ELEMENT SPIRAL-1.19979 IS DISTORTING EXCESSIVELY.
   ELEMENT SPIRAL-1.19982 IS DISTORTING EXCESSIVELY.
   ELEMENT SPIRAL-1.19987 IS DISTORTING EXCESSIVELY.
   ELEMENT SPIRAL-1.19988 IS DISTORTING EXCESSIVELY.
   ELEMENT SPIRAL-1.19989 IS DISTORTING EXCESSIVELY.
   ELEMENT SPIRAL-1.19992 IS DISTORTING EXCESSIVELY.
   ELEMENT SPIRAL-1.19996 IS DISTORTING EXCESSIVELY.
   ELEMENT SPIRAL-1.20002 IS DISTORTING EXCESSIVELY.
   ELEMENT SPIRAL-1.20003 IS DISTORTING EXCESSIVELY.
   ELEMENT SPIRAL-1.20004 IS DISTORTING EXCESSIVELY.
   ELEMENT SPIRAL-1.20007 IS DISTORTING EXCESSIVELY.
   ELEMENT SPIRAL-1.20009 IS DISTORTING EXCESSIVELY.
   ELEMENT SPIRAL-1.20013 IS DISTORTING EXCESSIVELY.
   ELEMENT SPIRAL-1.20014 IS DISTORTING EXCESSIVELY.
   ELEMENT SPIRAL-1.20016 IS DISTORTING EXCESSIVELY.
   ELEMENT SPIRAL-1.20017 IS DISTORTING EXCESSIVELY.
   ELEMENT SPIRAL-1.20020 IS DISTORTING EXCESSIVELY.
   ELEMENT SPIRAL-1.20023 IS DISTORTING EXCESSIVELY.
   ELEMENT SPIRAL-1.20027 IS DISTORTING EXCESSIVELY.
   ELEMENT SPIRAL-1.20028 IS DISTORTING EXCESSIVELY.
   ELEMENT SPIRAL-1.20029 IS DISTORTING EXCESSIVELY.
   ELEMENT SPIRAL-1.20033 IS DISTORTING EXCESSIVELY.
   ELEMENT SPIRAL-1.20037 IS DISTORTING EXCESSIVELY.
   ELEMENT SPIRAL-1.20038 IS DISTORTING EXCESSIVELY.
   ELEMENT SPIRAL-1.20039 IS DISTORTING EXCESSIVELY.
   ELEMENT SPIRAL-1.20040 IS DISTORTING EXCESSIVELY.
   ELEMENT SPIRAL-1.20044 IS DISTORTING EXCESSIVELY.
   ELEMENT SPIRAL-1.20045 IS DISTORTING EXCESSIVELY.
   ELEMENT SPIRAL-1.20051 IS DISTORTING EXCESSIVELY.
   ELEMENT SPIRAL-1.20055 IS DISTORTING EXCESSIVELY.
   ELEMENT SPIRAL-1.20058 IS DISTORTING EXCESSIVELY.
   ELEMENT SPIRAL-1.20059 IS DISTORTING EXCESSIVELY.
   ELEMENT SPIRAL-1.20060 IS DISTORTING EXCESSIVELY.
   ELEMENT SPIRAL-1.20062 IS DISTORTING EXCESSIVELY.
   ELEMENT SPIRAL-1.20065 IS DISTORTING EXCESSIVELY.
   ELEMENT SPIRAL-1.20067 IS DISTORTING EXCESSIVELY.
   ELEMENT SPIRAL-1.20070 IS DISTORTING EXCESSIVELY.
   ELEMENT SPIRAL-1.20071 IS DISTORTING EXCESSIVELY.
   ELEMENT SPIRAL-1.20072 IS DISTORTING EXCESSIVELY.
   ELEMENT SPIRAL-1.20075 IS DISTORTING EXCESSIVELY.
   ELEMENT SPIRAL-1.20076 IS DISTORTING EXCESSIVELY.
   ELEMENT SPIRAL-1.20078 IS DISTORTING EXCESSIVELY.
   ELEMENT SPIRAL-1.20079 IS DISTORTING EXCESSIVELY.
   ELEMENT SPIRAL-1.20080 IS DISTORTING EXCESSIVELY.
   ELEMENT SPIRAL-1.20083 IS DISTORTING EXCESSIVELY.
   ELEMENT SPIRAL-1.20085 IS DISTORTING EXCESSIVELY.
   ELEMENT SPIRAL-1.20086 IS DISTORTING EXCESSIVELY.
   ELEMENT SPIRAL-1.20089 IS DISTORTING EXCESSIVELY.
   ELEMENT SPIRAL-1.20092 IS DISTORTING EXCESSIVELY.
   ELEMENT SPIRAL-1.20093 IS DISTORTING EXCESSIVELY.

 ***WARNING: EXCESSIVE DISTORTION AT A TOTAL OF 7994 INTEGRATION POINTS IN 
             SOLID (CONTINUUM) ELEMENTS
 

 ***NOTE: ELEMENTS ARE DISTORTING EXCESSIVELY. CONVERGENCE IS JUDGED UNLIKELY.
 

 ***ERROR: TOO MANY ATTEMPTS MADE FOR THIS INCREMENT



     ANALYSIS SUMMARY:
     TOTAL OF          1  INCREMENTS
                       5  CUTBACKS IN AUTOMATIC INCREMENTATION
                       7  ITERATIONS INCLUDING CONTACT ITERATIONS IF PRESENT
                       7  PASSES THROUGH THE EQUATION SOLVER OF WHICH 
                       7  INVOLVE MATRIX DECOMPOSITION, INCLUDING
                       0  DECOMPOSITION(S) OF THE MASS MATRIX
                       1  REORDERING OF EQUATIONS TO MINIMIZE WAVEFRONT
                       0  ADDITIONAL RESIDUAL EVALUATIONS FOR LINE SEARCHES
                       0  ADDITIONAL OPERATOR EVALUATIONS FOR LINE SEARCHES
                       4  WARNING MESSAGES DURING USER INPUT PROCESSING
                       7  WARNING MESSAGES DURING ANALYSIS
                       0  ANALYSIS WARNINGS ARE NUMERICAL PROBLEM MESSAGES
                       2  ANALYSIS WARNINGS ARE NEGATIVE EIGENVALUE MESSAGES
                       1  ERROR MESSAGES



     JOB TIME SUMMARY
       USER TIME (SEC)      =      13.    
       SYSTEM TIME (SEC)    =      2.0    
       TOTAL CPU TIME (SEC) =      15.    
       WALLCLOCK TIME (SEC) =            6
       MEMORY PEAK (GB)     =            0
