 Abaqus/Standard 2025                  DATE 21-Feb-2026 TIME 23:57:40
 SUMMARY OF JOB INFORMATION:
 STEP  INC ATT SEVERE EQUIL TOTAL  TOTAL      STEP       INC OF       DOF    IF
               DISCON ITERS ITERS  TIME/    TIME/LPF    TIME/LPF    MONITOR RIKS
               ITERS               FREQ
   1     1   1     0     2     2  0.00100    0.00100    0.001000  
   1     2   1     0     1     1  0.00200    0.00200    0.001000  
   1     3   1     0     1     1  0.00350    0.00350    0.001500  
   1     4   1     0     1     1  0.00575    0.00575    0.002250  
   1     5   1     0     2     2  0.00913    0.00913    0.003375  
   1     6   1     0     2     2  0.0142     0.0142     0.005063  
   1     7   1     0     2     2  0.0218     0.0218     0.007594  
   1     8   1     0     2     2  0.0332     0.0332     0.01139   
   1     9   1     0     2     2  0.0503     0.0503     0.01709   
   1    10   1     0     3     3  0.0759     0.0759     0.02563   
   1    11   1     0     3     3  0.114      0.114      0.03844   
   1    12   1     0     3     3  0.164      0.164      0.05000   
   1    13   1     0     4     4  0.214      0.214      0.05000   
   1    14   1     0     4     4  0.264      0.264      0.05000   
   1    15   1     0     4     4  0.314      0.314      0.05000   
   1    16   1     0     4     4  0.364      0.364      0.05000   
   1    17   1     0     4     4  0.414      0.414      0.05000   
   1    18   1     0     4     4  0.464      0.464      0.05000   
   1    19   1     0     5     5  0.514      0.514      0.05000   
   1    20   1     0     5     5  0.564      0.564      0.05000   
   1    21   1     0     4     4  0.614      0.614      0.05000   
   1    22   1     0     4     4  0.664      0.664      0.05000   
   1    23   1     0     3     3  0.714      0.714      0.05000   
   1    24   1     0     3     3  0.764      0.764      0.05000   
   1    25   1     0     3     3  0.814      0.814      0.05000   
   1    26   1     0     3     3  0.864      0.864      0.05000   
   1    27   1     0     2     2  0.914      0.914      0.05000   
   1    28   1     0     2     2  0.964      0.964      0.05000   
   1    29   1     0     2     2  1.00       1.00       0.03567   
                          
 THE ANALYSIS HAS COMPLETED SUCCESSFULLY
