*Heading
** Job name: Job-6 Model name: Spiral_Model_6
** Generated by: Abaqus/CAE 2025
*Preprint, echo=NO, model=NO, history=NO, contact=NO
**
** PARTS
**
*Part, name=Final_Part
*Node
      1, 0.0824703127,  0.110258363, 0.00249999994
      2, 0.0824599788,  0.110157475, 0.00249999994
      3, 0.0812609047, 0.0984543785, 0.00249999994
      4, 0.0812609047, 0.0984543785, 0.00260000001
      5, 0.0824703127,  0.110258363, 0.00260000001
      6, 0.0827147067,  0.110190868, 0.00249999994
      7, 0.0827043727,   0.11008998, 0.00249999994
      8,  0.081513904, 0.0984709188, 0.00249999994
      9,  0.081513904, 0.0984709188, 0.00260000001
     10, 0.0827147067,  0.110190868, 0.00260000001
     11, 0.0824703127,  0.110258363, 0.0022499999
     12, 0.0824599713,  0.110157482, 0.0022499999
     13, 0.0827147067,  0.110190868, 0.0022499999
     14, 0.0827043727,   0.11008998, 0.0022499999
     15, 0.0824703127,  0.110258363, 0.00200000009
     16, 0.0824703127,  0.110258363, 0.00190000003
     17, 0.0812609047, 0.0984543785, 0.00190000003
     18, 0.0824599788,  0.110157475, 0.00200000009
     19, 0.0812609047, 0.0984543785, 0.00200000009
     20, 0.0827147067,  0.110190868, 0.00200000009
** ... 164882 like lines cut
*Element, type=C3D8R
 1,   6,   7, 434,  10,   1,   2, 387,   5
 2,   7, 388, 433, 434,   2, 341, 386, 387
 3, 388, 389, 432, 433, 341, 342, 385, 386
 4, 389, 390, 431, 432, 342, 343, 384, 385
 5, 390, 391, 430, 431, 343, 344, 383, 384
 6, 391, 392, 429, 430, 344, 345, 382, 383
 7, 392, 393, 428, 429, 345, 346, 381, 382
 8, 393, 394, 427, 428, 346, 347, 380, 381
 9, 394, 395, 426, 427, 347, 348, 379, 380
10, 395, 396, 425, 426, 348, 349, 378, 379
11, 396, 397, 424, 425, 349, 350, 377, 378
12, 397, 398, 423, 424, 350, 351, 376, 377
13, 398, 399, 422, 423, 351, 352, 375, 376
14, 399, 400, 421, 422, 352, 353, 374, 375
15, 400, 401, 420, 421, 353, 354, 373, 374
16, 401, 402, 419, 420, 354, 355, 372, 373
17, 402, 403, 418, 419, 355, 356, 371, 372
18, 403, 404, 417, 418, 356, 357, 370, 371
19, 404, 405, 416, 417, 357, 358, 369, 370
20, 405, 406, 415, 416, 358, 359, 368, 369
** ... 128447 like lines cut
*Nset, nset=_PickedSet38, internal
    1,    2,    3,    4,    5,    6,    7,    8,    9,   10,   11,   12,   13,   14,   15,   16
   17,   18,   19,   20,   21,   22,   23,   24,   25,   26,   27,   28,   29,   30,   31,   32
   33,   34,   35,   36,   37,   38,   39,   40,   41,   42,   43,   44,   45,   46,   47,   48
   49,   50,   51,   52,   53,   54,   55,   56,   57,   58,   59,   60,   61,   62,   63,   64
   65,   66,   67,   68,   69,   70,   71,   72,   73,   74,   75,   76,   77,   78,   79,   80
   81,   82,   83,   84,   85,   86,   87,   88,   89,   90,   91,   92,   93,   94,   95,   96
   97,   98,   99,  100,  101,  102,  103,  104,  105,  106,  107,  108,  109,  110,  111,  112
  113,  114,  115,  116,  117,  118,  119,  120,  121,  122,  123,  124,  125,  126,  127,  128
  129,  130,  131,  132,  133,  134,  135,  136,  137,  138,  139,  140,  141,  142,  143,  144
  145,  146,  147,  148,  149,  150,  151,  152,  153,  154,  155,  156,  157,  158,  159,  160
  161,  162,  163,  164,  165,  166,  167,  168,  169,  170,  171,  172,  173,  174,  175,  176
  177,  178,  179,  180,  181,  182,  183,  184,  185,  186,  187,  188,  189,  190,  191,  192
  341,  342,  343,  344,  345,  346,  347,  348,  349,  350,  351,  352,  353,  354,  355,  356
  357,  358,  359,  360,  361,  362,  363,  364,  365,  366,  367,  368,  369,  370,  371,  372
  373,  374,  375,  376,  377,  378,  379,  380,  381,  382,  383,  384,  385,  386,  387,  388
  389,  390,  391,  392,  393,  394,  395,  396,  397,  398,  399,  400,  401,  402,  403,  404
  405,  406,  407,  408,  409,  410,  411,  412,  413,  414,  415,  416,  417,  418,  419,  420
  421,  422,  423,  424,  425,  426,  427,  428,  429,  430,  431,  432,  433,  434,  435,  436
  437,  438,  439,  440,  441,  442,  443,  444,  445,  446,  447,  448,  449,  450,  451,  452
  453,  454,  455,  456,  457,  458,  459,  460,  461,  462,  463,  464,  465,  466,  467,  468
** ... 281 like lines cut
*Elset, elset=_PickedSet38, internal, generate
    1,  1602,     1
*Nset, nset=_PickedSet39, internal
      6,      7,      8,      9,     10,     20,     21,     22,     23,     24,     25,     26,     27,     28,     29,     32
     33,     34,     35,     36,     39,     40,     41,     42,     45,     46,     47,     48,     49,     59,     60,     61
     62,     63,     66,     67,     70,     71,     72,     74,     75,     76,     77,     80,     81,     82,     83,     84
     94,     95,     96,     99,    100,    101,    102,    103,    104,    105,    107,    110,    111,    112,    113,    114
    117,    118,    119,    120,    121,    122,    123,    131,    132,    133,    139,    140,    141,    142,    143,    146
    147,    148,    149,    150,    151,    152,    155,    156,    162,    163,    164,    172,    173,    174,    175,    176
    177,    178,    179,    182,    183,    184,    185,    186,    189,    190,    191,    192,    193,    194,    195,    196
    197,    198,    199,    200,    201,    202,    203,    204,    205,    206,    207,    208,    209,    210,    211,    212
    213,    214,    215,    216,    217,    218,    219,    220,    221,    222,    223,    224,    225,    226,    227,    228
    229,    230,    231,    232,    233,    234,    235,    236,    237,    238,    239,    240,    241,    242,    243,    244
    245,    246,    247,    248,    249,    250,    251,    252,    253,    254,    255,    256,    257,    258,    259,    260
    261,    262,    263,    264,    265,    266,    267,    268,    269,    270,    271,    272,    273,    274,    275,    276
    277,    278,    279,    280,    281,    282,    283,    284,    285,    286,    287,    288,    289,    290,    291,    292
    293,    294,    295,    296,    297,    298,    299,    300,    301,    302,    303,    304,    305,    306,    307,    308
    309,    310,    311,    312,    313,    314,    315,    316,    317,    318,    319,    320,    321,    322,    323,    324
    325,    326,    327,    328,    329,    330,    331,    332,    333,    334,    335,    336,    337,    338,    339,    340
    388,    389,    390,    391,    392,    393,    394,    395,    396,    397,    398,    399,    400,    401,    402,    403
    404,    405,    406,    407,    408,    409,    410,    411,    412,    413,    414,    415,    416,    417,    418,    419
    420,    421,    422,    423,    424,    425,    426,    427,    428,    429,    430,    431,    432,    433,    434,    482
    483,    484,    485,    486,    487,    488,    489,    490,    491,    492,    493,    494,    495,    496,    497,    498
** ... 10185 like lines cut
*Elset, elset=_PickedSet39, internal, generate
   1603,  128467,       1
** Section: Tape_Section
*Solid Section, elset=_PickedSet38, material=Tape_Material
,
** Section: Plywood_Section
*Solid Section, elset=_PickedSet39, material=Plywood_Material
,
*End Part
**  
**
** ASSEMBLY
**
*Assembly, name=Assembly
**  
*Instance, name=Final_Part-1, part=Final_Part
*End Instance
**  
*Nset, nset=_PickedSet43, internal, instance=Final_Part-1
  175,  180,  185,  188,  189,  191, 4569, 4570, 4571, 4572, 4573, 4574, 4575, 4576, 4577, 4578
 4579, 4580, 4581, 4582, 4583, 4584, 4585, 4586, 4587, 4588, 4589, 4590, 4591, 4592, 4593, 4594
 4595, 4596, 4597, 4598, 4599, 4600, 4601, 4602, 4603, 4604, 4605, 4606, 4607, 4608, 4609, 4610
 4611, 4612, 4613, 4614, 4615, 4616, 4617, 4618, 4619, 4620, 4621, 4622, 4623, 4624, 4625, 4626
 4627, 4628, 4629, 4630, 4631, 4632, 4633, 4634, 4635, 4636, 4637, 4638, 4639, 4640, 4641, 4642
 4643, 4644, 4645, 4646, 4647, 4648, 4649, 4650, 4651, 4652, 4653, 4654, 4655, 4656, 4657, 4658
 4659, 4660, 4661, 4662, 4663, 4664, 4665, 4666, 4667, 4668, 4669, 4670, 4671, 4672, 4673, 4674
 4675, 4676, 4677, 4678, 4679, 4680, 4681, 4682, 4683, 4684, 4685, 4686, 4687, 4688, 4689, 4690
 4691, 4692, 4693, 4694, 4695, 4696, 4697, 4698, 4699, 4700, 4701, 4702, 4703, 4704, 4705, 4706
 4707, 4708, 4709, 4710, 4711, 4712, 4713, 4714, 4715, 4716, 4717, 4718, 4719, 4720, 4721, 4722
 4723, 4724, 4725, 4726, 4727, 4728, 4729, 4730, 4731, 4732, 4733, 4734, 4735, 4736, 4737, 4738
 4739, 4740, 4741, 4742, 4743, 4744, 4745, 4746, 4747, 4748, 4749, 4750, 4751, 4752, 4753, 4754
 4755, 4756, 4757, 4758, 4759, 4760, 4761, 4762, 4763, 4764, 4863, 4864, 4865, 4866, 4867, 4868
 4869, 4870, 4871, 4872, 4873, 4874, 4875, 4876, 4877, 4878, 4879, 4880, 4881, 4882, 4883, 4884
 4885, 4886, 4887, 4888, 4889, 4890, 4891, 4892, 4893, 4894, 4895, 4896, 4897, 4898, 4899, 4900
 4901, 4902, 4903, 4904, 4905, 4906, 4907, 4908, 4909, 4910, 4911, 4912, 4913, 4914, 4915, 4916
 4917, 4918, 4919, 4920, 4921, 4922, 4923, 4924, 4925, 4926, 4927, 4928, 4929, 4930, 4931, 4932
 4933, 4934, 4935, 4936, 4937, 4938, 4939, 4940, 4941, 4942, 4943, 4944, 4945, 4946, 4947, 4948
 4949, 4950, 4951, 4952, 4953, 4954, 4955, 4956, 4957, 4958, 4959, 4960
*Elset, elset=_PickedSet43, internal, instance=Final_Part-1, generate
 1405,  1602,     1
*Elset, elset=__PickedSurf41_S2, internal, instance=Final_Part-1, generate
 89363,  95957,      1
*Surface, type=ELEMENT, name=_PickedSurf41, internal
__PickedSurf41_S2, S2
*Elset, elset=__PickedSurf42_S2, internal, instance=Final_Part-1, generate
 121966,  128467,       1
*Surface, type=ELEMENT, name=_PickedSurf42, internal
__PickedSurf42_S2, S2
*End Assembly
** 
** MATERIALS
** 
*Material, name=Plywood_Material
*Density
680.,
*Elastic
 7e+09, 0.13
*Material, name=Tape_Material
*Density
880.,
*Elastic
 5e+10, 0.34
** ----------------------------------------------------------------
** 
** STEP: Step-1
** 
*Step, name=Step-1, nlgeom=YES
*Static
1., 1., 1e-05, 1.
** 
** BOUNDARY CONDITIONS
** 
** Name: BC-1 Type: Symmetry/Antisymmetry/Encastre
*Boundary
_PickedSet43, ENCASTRE
** 
** LOADS
** 
** Name: Load-1   Type: Surface traction
*Dsload
_PickedSurf41, TRVEC, 16000., 0., 0., 1.
** Name: Load-2   Type: Surface traction
*Dsload
_PickedSurf42, TRVEC, 16000., 0., 0., -1.
** 
** OUTPUT REQUESTS
** 
*Restart, write, frequency=0
** 
** FIELD OUTPUT: F-Output-1
** 
*Output, field, variable=PRESELECT
** 
** HISTORY OUTPUT: H-Output-1
** 
*Output, history, variable=PRESELECT
*End Step
